<nodes>
    <!-- 5x5 grid intersections (expanded by 2 rows and 2 columns) -->
    <!-- x and y spaced by 500 units -->
    <node id="n00" x="0" y="0" type="traffic_light"/>
    <node id="n01" x="500" y="0" type="traffic_light"/>
    <node id="n02" x="1000" y="0" type="traffic_light"/>
    <node id="n03" x="1500" y="0" type="traffic_light"/>
    <node id="n04" x="2000" y="0" type="traffic_light"/>

    <node id="n10" x="0" y="500" type="traffic_light"/>
    <node id="n11" x="500" y="500" type="traffic_light"/>
    <node id="n12" x="1000" y="500" type="traffic_light"/>
    <node id="n13" x="1500" y="500" type="traffic_light"/>
    <node id="n14" x="2000" y="500" type="traffic_light"/>

    <node id="n20" x="0" y="1000" type="traffic_light"/>
    <node id="n21" x="500" y="1000" type="traffic_light"/>
    <node id="n22" x="1000" y="1000" type="traffic_light"/>
    <node id="n23" x="1500" y="1000" type="traffic_light"/>
    <node id="n24" x="2000" y="1000" type="traffic_light"/>

    <node id="n30" x="0" y="1500" type="traffic_light"/>
    <node id="n31" x="500" y="1500" type="traffic_light"/>
    <node id="n32" x="1000" y="1500" type="traffic_light"/>
    <node id="n33" x="1500" y="1500" type="traffic_light"/>
    <node id="n34" x="2000" y="1500" type="traffic_light"/>

    <node id="n40" x="0" y="2000" type="traffic_light"/>
    <node id="n41" x="500" y="2000" type="traffic_light"/>
    <node id="n42" x="1000" y="2000" type="traffic_light"/>
    <node id="n43" x="1500" y="2000" type="traffic_light"/>
    <node id="n44" x="2000" y="2000" type="traffic_light"/>
</nodes>
