<routes>
    <!-- Vehicle types with distinct colors for visual appeal -->
    <vType id="car_blue" accel="2.6" decel="4.5" sigma="0.5" length="5" minGap="2.5" maxSpeed="15" guiShape="passenger" color="0,102,204"/>
    <vType id="car_red" accel="2.6" decel="4.5" sigma="0.5" length="5" minGap="2.5" maxSpeed="15" guiShape="passenger" color="204,51,51"/>
    <vType id="car_green" accel="2.6" decel="4.5" sigma="0.5" length="5" minGap="2.5" maxSpeed="15" guiShape="passenger" color="0,153,51"/>

    <!-- Horizontal (eastbound) routes -->
    <route id="r_row0_e" edges="n00_n01 n01_n02 n02_n03 n03_n04"/>
    <route id="r_row1_e" edges="n10_n11 n11_n12 n12_n13 n13_n14"/>
    <route id="r_row2_e" edges="n20_n21 n21_n22 n22_n23 n23_n24"/>
    <route id="r_row3_e" edges="n30_n31 n31_n32 n32_n33 n33_n34"/>
    <route id="r_row4_e" edges="n40_n41 n41_n42 n42_n43 n43_n44"/>

    <!-- Horizontal (westbound) routes (ordered from east edge to west edge) -->
    <route id="r_row0_w" edges="n04_n03 n03_n02 n02_n01 n01_n00"/>
    <route id="r_row1_w" edges="n14_n13 n13_n12 n12_n11 n11_n10"/>
    <route id="r_row2_w" edges="n24_n23 n23_n22 n22_n21 n21_n20"/>
    <route id="r_row3_w" edges="n34_n33 n33_n32 n32_n31 n31_n30"/>
    <route id="r_row4_w" edges="n44_n43 n43_n42 n42_n41 n41_n40"/>

    <!-- Vertical (southbound) routes -->
    <route id="r_col0_s" edges="n00_n10 n10_n20 n20_n30 n30_n40"/>
    <route id="r_col1_s" edges="n01_n11 n11_n21 n21_n31 n31_n41"/>
    <route id="r_col2_s" edges="n02_n12 n12_n22 n22_n32 n32_n42"/>
    <route id="r_col3_s" edges="n03_n13 n13_n23 n23_n33 n33_n43"/>
    <route id="r_col4_s" edges="n04_n14 n14_n24 n24_n34 n34_n44"/>

    <!-- Vertical (northbound) routes (ordered from south edge to north edge) -->
    <route id="r_col0_n" edges="n40_n30 n30_n20 n20_n10 n10_n00"/>
    <route id="r_col1_n" edges="n41_n31 n31_n21 n21_n11 n11_n01"/>
    <route id="r_col2_n" edges="n42_n32 n32_n22 n22_n12 n12_n02"/>
    <route id="r_col3_n" edges="n43_n33 n33_n23 n23_n13 n13_n03"/>
    <route id="r_col4_n" edges="n44_n34 n34_n24 n24_n14 n14_n04"/>

    <!-- Flows: moderate probability to create continuous, visually pleasing traffic -->
    <!-- East/West flows per row (alternate vehicle types for variety) -->
    <flow id="flow_row0_e" route="r_row0_e" begin="0" end="3600" probability="0.10" type="car_blue"/>
    <flow id="flow_row0_w" route="r_row0_w" begin="0" end="3600" probability="0.06" type="car_red"/>
    <flow id="flow_row1_e" route="r_row1_e" begin="0" end="3600" probability="0.08" type="car_green"/>
    <flow id="flow_row1_w" route="r_row1_w" begin="0" end="3600" probability="0.06" type="car_blue"/>
    <flow id="flow_row2_e" route="r_row2_e" begin="0" end="3600" probability="0.10" type="car_red"/>
    <flow id="flow_row2_w" route="r_row2_w" begin="0" end="3600" probability="0.06" type="car_green"/>
    <flow id="flow_row3_e" route="r_row3_e" begin="0" end="3600" probability="0.08" type="car_blue"/>
    <flow id="flow_row3_w" route="r_row3_w" begin="0" end="3600" probability="0.06" type="car_red"/>
    <flow id="flow_row4_e" route="r_row4_e" begin="0" end="3600" probability="0.10" type="car_green"/>
    <flow id="flow_row4_w" route="r_row4_w" begin="0" end="3600" probability="0.06" type="car_blue"/>

    <!-- South/North flows per column -->
    <flow id="flow_col0_s" route="r_col0_s" begin="0" end="3600" probability="0.09" type="car_red"/>
    <flow id="flow_col0_n" route="r_col0_n" begin="0" end="3600" probability="0.05" type="car_blue"/>
    <flow id="flow_col1_s" route="r_col1_s" begin="0" end="3600" probability="0.08" type="car_green"/>
    <flow id="flow_col1_n" route="r_col1_n" begin="0" end="3600" probability="0.05" type="car_red"/>
    <flow id="flow_col2_s" route="r_col2_s" begin="0" end="3600" probability="0.10" type="car_blue"/>
    <flow id="flow_col2_n" route="r_col2_n" begin="0" end="3600" probability="0.05" type="car_green"/>
    <flow id="flow_col3_s" route="r_col3_s" begin="0" end="3600" probability="0.08" type="car_red"/>
    <flow id="flow_col3_n" route="r_col3_n" begin="0" end="3600" probability="0.05" type="car_blue"/>
    <flow id="flow_col4_s" route="r_col4_s" begin="0" end="3600" probability="0.09" type="car_green"/>
    <flow id="flow_col4_n" route="r_col4_n" begin="0" end="3600" probability="0.05" type="car_red"/>

</routes>
