<?xml version="1.0" encoding="UTF-8"?>

<!-- generated on 2026-01-12T12:33:35.631657+05:30 by Eclipse SUMO netconvert 1.25.0
<netconvertConfiguration xmlns:xsi="http://www.w3.org/2001/XMLSchema-instance" xsi:noNamespaceSchemaLocation="http://sumo.dlr.de/xsd/netconvertConfiguration.xsd">

    <input>
        <sumo-net-file value="iit_ism_tls.net.xml"/>
    </input>

    <output>
        <plain-output-prefix value="check"/>
    </output>

    <processing>
        <geometry.min-radius.fix.railways value="false"/>
        <geometry.avoid-overlap value="false"/>
        <geometry.max-grade.fix value="false"/>
        <offset.disable-normalization value="true"/>
        <lefthand value="0"/>
    </processing>

    <junctions>
        <no-turnarounds value="true"/>
        <junctions.corner-detail value="5"/>
        <junctions.limit-turn-speed value="5.50"/>
        <rectangular-lane-cut value="0"/>
    </junctions>

    <pedestrian>
        <walkingareas value="0"/>
    </pedestrian>

</netconvertConfiguration>
-->

<edges version="1.20" xmlns:xsi="http://www.w3.org/2001/XMLSchema-instance" xsi:noNamespaceSchemaLocation="http://sumo.dlr.de/xsd/edges_file.xsd">
    <location netOffset="-433343.48,-2632026.27" convBoundary="0.00,0.00,15513.24,3843.31" origBoundary="86.345531,23.798453,86.497844,23.833159" projParameter="+proj=utm +zone=45 +ellps=WGS84 +datum=WGS84 +units=m +no_defs"/>

    <edge id="-1010357934#0" from="9497425825" to="9322250448" priority="3" type="highway.residential" numLanes="1" speed="13.89" shape="8363.57,3560.49 8339.09,3590.06 8321.25,3614.37 8314.03,3629.30 8305.52,3652.73 8303.36,3664.96 8304.06,3672.38 8312.25,3700.39 8329.21,3757.85" disallow="tram rail_urban rail rail_electric rail_fast ship container cable_car subway aircraft wheelchair scooter drone"/>
    <edge id="-1010357934#1" from="cluster_9497454729_9497627354" to="9497425825" priority="3" type="highway.residential" numLanes="1" speed="13.89" shape="8472.79,3199.25 8471.48,3225.44 8467.40,3245.69 8465.97,3252.78 8456.16,3288.58 8454.41,3295.07 8446.04,3326.18 8444.40,3344.99 8446.83,3381.31 8445.82,3415.63 8440.28,3438.28 8434.62,3452.32 8415.30,3482.70 8394.16,3517.99 8373.89,3548.04 8363.57,3560.49" disallow="tram rail_urban rail rail_electric rail_fast ship container cable_car subway aircraft wheelchair scooter drone"/>
    <edge id="-1010357934#10" from="9497523178" to="9497523182" priority="3" type="highway.residential" numLanes="1" speed="13.89" shape="8438.13,2676.05 8437.05,2686.01 8425.70,2734.09 8420.70,2756.92 8420.49,2776.86 8420.52,2782.94" disallow="tram rail_urban rail rail_electric rail_fast ship container cable_car subway aircraft wheelchair scooter drone"/>
    <edge id="-1010357934#11" from="9156969840" to="9497523178" priority="3" type="highway.residential" numLanes="1" speed="13.89" shape="8437.87,2613.36 8440.43,2642.04 8439.70,2661.60 8438.13,2676.05" disallow="tram rail_urban rail rail_electric rail_fast ship container cable_car subway aircraft wheelchair scooter drone"/>
    <edge id="-1010357934#3" from="9497425852" to="cluster_9497454729_9497627354" priority="3" type="highway.residential" numLanes="1" speed="13.89" shape="8471.95,3148.78 8473.77,3179.80 8473.42,3186.72" disallow="tram rail_urban rail rail_electric rail_fast ship container cable_car subway aircraft wheelchair scooter drone"/>
    <edge id="-1010357934#4" from="9497627339" to="9497425852" priority="3" type="highway.residential" numLanes="1" speed="13.89" shape="8467.94,3112.00 8471.71,3144.66 8471.95,3148.78" disallow="tram rail_urban rail rail_electric rail_fast ship container cable_car subway aircraft wheelchair scooter drone"/>
    <edge id="-1010357934#5" from="9497425876" to="9497627339" priority="3" type="highway.residential" numLanes="1" speed="13.89" disallow="tram rail_urban rail rail_electric rail_fast ship container cable_car subway aircraft wheelchair scooter drone"/>
    <edge id="-1010357934#6" from="9497523144" to="9497425876" priority="3" type="highway.residential" numLanes="1" speed="13.89" shape="8457.60,3007.87 8460.29,3027.17 8460.12,3049.86 8460.86,3061.90 8465.18,3088.00 8465.85,3093.88" disallow="tram rail_urban rail rail_electric rail_fast ship container cable_car subway aircraft wheelchair scooter drone"/>
    <edge id="-1010357934#7" from="9497449157" to="9497523144" priority="3" type="highway.residential" numLanes="1" speed="13.89" shape="8416.55,2860.93 8415.44,2879.30 8415.62,2898.72 8417.78,2916.24 8420.78,2925.30 8437.88,2956.09 8448.03,2972.86 8452.19,2982.39 8456.63,3000.85 8457.60,3007.87" disallow="tram rail_urban rail rail_electric rail_fast ship container cable_car subway aircraft wheelchair scooter drone"/>
    <edge id="-1010357934#8" from="9497425819" to="9497449157" priority="3" type="highway.residential" numLanes="1" speed="13.89" shape="8421.44,2809.67 8420.96,2823.19 8419.48,2834.59 8417.05,2852.77 8416.55,2860.93" disallow="tram rail_urban rail rail_electric rail_fast ship container cable_car subway aircraft wheelchair scooter drone"/>
    <edge id="-1010357934#9" from="9497523182" to="9497425819" priority="3" type="highway.residential" numLanes="1" speed="13.89" shape="8420.52,2782.94 8420.57,2795.06 8421.44,2809.67" disallow="tram rail_urban rail rail_electric rail_fast ship container cable_car subway aircraft wheelchair scooter drone"/>
    <edge id="-1010357938#0" from="9497550804" to="9156969813" priority="3" type="highway.residential" numLanes="1" speed="13.89" disallow="tram rail_urban rail rail_electric rail_fast ship container cable_car subway aircraft wheelchair scooter drone"/>
    <edge id="-1010357938#1" from="9497621056" to="9497550804" priority="3" type="highway.residential" numLanes="1" speed="13.89" shape="9241.83,2681.98 9240.48,2673.61 9230.59,2638.70 9229.29,2631.46 9229.07,2622.58 9231.68,2590.51 9232.02,2554.06 9235.13,2499.87" disallow="tram rail_urban rail rail_electric rail_fast ship container cable_car subway aircraft wheelchair scooter drone"/>
    <edge id="-1010357938#2" from="cluster_9497582648_9497621055" to="9497621056" priority="3" type="highway.residential" numLanes="1" speed="13.89" shape="9245.88,2780.24 9249.07,2772.47 9249.73,2763.85 9247.76,2718.95 9241.83,2681.98" disallow="tram rail_urban rail rail_electric rail_fast ship container cable_car subway aircraft wheelchair scooter drone"/>
    <edge id="-1010357938#3" from="9497586458" to="cluster_9497582648_9497621055" priority="3" type="highway.residential" numLanes="1" speed="13.89" shape="9202.16,2855.99 9202.68,2853.87 9208.88,2834.02 9212.82,2821.68 9217.22,2812.63 9225.42,2800.54 9237.74,2788.28 9245.88,2780.24" disallow="tram rail_urban rail rail_electric rail_fast ship container cable_car subway aircraft wheelchair scooter drone"/>
    <edge id="-1010357938#4" from="9497586455" to="9497586458" priority="3" type="highway.residential" numLanes="1" speed="13.89" disallow="tram rail_urban rail rail_electric rail_fast ship container cable_car subway aircraft wheelchair scooter drone"/>
    <edge id="-1010357938#5" from="9497586445" to="9497586455" priority="3" type="highway.residential" numLanes="1" speed="13.89" shape="9186.22,2905.43 9187.31,2903.10 9192.80,2891.69 9195.42,2883.52 9198.08,2872.63" disallow="tram rail_urban rail rail_electric rail_fast ship container cable_car subway aircraft wheelchair scooter drone"/>
    <edge id="-1010357938#6" from="9497550812" to="9497586445" priority="3" type="highway.residential" numLanes="1" speed="13.89" shape="9171.47,2937.37 9174.30,2930.86 9186.22,2905.43" disallow="tram rail_urban rail rail_electric rail_fast ship container cable_car subway aircraft wheelchair scooter drone"/>
    <edge id="-1010357938#7" from="9497621046" to="9497550812" priority="3" type="highway.residential" numLanes="1" speed="13.89" shape="9157.35,2999.95 9167.28,2951.81 9171.47,2937.37" disallow="tram rail_urban rail rail_electric rail_fast ship container cable_car subway aircraft wheelchair scooter drone"/>
    <edge id="-1010357938#8" from="9497619547" to="9497621046" priority="3" type="highway.residential" numLanes="1" speed="13.89" shape="9105.44,3147.51 9125.24,3097.04 9134.59,3076.90 9144.46,3051.87 9156.29,3005.10 9157.35,2999.95" disallow="tram rail_urban rail rail_electric rail_fast ship container cable_car subway aircraft wheelchair scooter drone"/>
    <edge id="-1010357938#9" from="9322250478" to="9497619547" priority="3" type="highway.residential" numLanes="1" speed="13.89" shape="9067.59,3232.82 9101.44,3157.72 9105.44,3147.51" disallow="tram rail_urban rail rail_electric rail_fast ship container cable_car subway aircraft wheelchair scooter drone"/>
    <edge id="-1010357939#1" from="9497591110" to="cluster_9322222965_9322222966" priority="3" type="highway.residential" numLanes="1" speed="13.89" shape="9449.32,3325.80 9437.62,3334.17 9396.34,3360.16 9354.23,3385.44 9329.16,3397.95 9312.25,3403.92 9277.30,3414.96 9244.42,3423.09 9232.62,3425.00 9199.51,3430.33 9163.64,3438.05 9140.14,3441.99 9110.92,3445.77 9107.85,3446.14 9078.70,3449.70 9058.35,3449.24 9046.60,3448.06 9028.83,3447.18 9001.81,3450.42 8981.33,3455.12" disallow="tram rail_urban rail rail_electric rail_fast ship container cable_car subway aircraft wheelchair scooter drone"/>
    <edge id="-1010357939#2" from="9497591039" to="9497591110" priority="3" type="highway.residential" numLanes="1" speed="13.89" shape="9563.53,3211.00 9558.80,3215.86 9545.85,3231.50 9535.63,3242.69 9504.00,3269.77 9499.48,3274.68 9494.73,3282.02 9487.99,3292.82 9485.20,3296.78 9481.19,3301.68 9475.18,3306.65 9469.31,3311.52 9449.32,3325.80" disallow="tram rail_urban rail rail_electric rail_fast ship container cable_car subway aircraft wheelchair scooter drone"/>
    <edge id="-1010357939#3" from="9322222944" to="9497591039" priority="3" type="highway.residential" numLanes="1" speed="13.89" shape="9645.49,3157.73 9613.44,3179.08 9592.49,3190.30 9582.28,3195.97 9570.82,3203.53 9563.53,3211.00" disallow="tram rail_urban rail rail_electric rail_fast ship container cable_car subway aircraft wheelchair scooter drone"/>
    <edge id="-1010357939#4" from="9497594543" to="9322222944" priority="3" type="highway.residential" numLanes="1" speed="13.89" shape="9688.57,3131.44 9679.57,3136.67 9645.49,3157.73" disallow="tram rail_urban rail rail_electric rail_fast ship container cable_car subway aircraft wheelchair scooter drone"/>
    <edge id="-1010357939#5" from="9322222941" to="9497594543" priority="3" type="highway.residential" numLanes="1" speed="13.89" shape="9733.51,3101.42 9715.96,3114.86 9705.46,3121.64 9688.57,3131.44" disallow="tram rail_urban rail rail_electric rail_fast ship container cable_car subway aircraft wheelchair scooter drone"/>
    <edge id="-1010357939#6" from="9489696155" to="9322222941" priority="3" type="highway.residential" numLanes="1" speed="13.89" disallow="tram rail_urban rail rail_electric rail_fast ship container cable_car subway aircraft wheelchair scooter drone"/>
    <edge id="-1010357939#7" from="9322250510" to="9489696155" priority="3" type="highway.residential" numLanes="1" speed="13.89" shape="9987.66,2976.67 9980.62,2975.08 9973.55,2976.65 9947.22,2983.23 9912.03,2994.09 9903.56,2994.68 9893.86,2993.90 9881.22,2991.64 9871.58,2991.26 9861.00,2994.39 9852.90,2998.94 9830.83,3013.16 9812.64,3029.10 9791.22,3049.04 9778.67,3063.20" disallow="tram rail_urban rail rail_electric rail_fast ship container cable_car subway aircraft wheelchair scooter drone"/>
    <edge id="-1010357939#8" from="9322250505" to="9322250510" priority="3" type="highway.residential" numLanes="1" speed="13.89" shape="10076.96,3007.58 10053.33,3006.74 10037.76,3004.02 10022.12,2997.94 10004.98,2988.02 9987.66,2976.67" disallow="tram rail_urban rail rail_electric rail_fast ship container cable_car subway aircraft wheelchair scooter drone"/>
    <edge id="-1010357939#9" from="9489642626" to="9322250505" priority="3" type="highway.residential" numLanes="1" speed="13.89" shape="10096.61,3028.17 10089.01,3014.76 10085.66,3009.82 10076.96,3007.58" disallow="tram rail_urban rail rail_electric rail_fast ship container cable_car subway aircraft wheelchair scooter drone"/>
    <edge id="-1010357948#0" from="9156969780" to="9156969777" priority="3" type="highway.residential" numLanes="1" speed="13.89" disallow="tram rail_urban rail rail_electric rail_fast ship container cable_car subway aircraft wheelchair scooter drone"/>
    <edge id="-1010357948#1" from="9156969774" to="9156969780" priority="3" type="highway.residential" numLanes="1" speed="13.89" disallow="tram rail_urban rail rail_electric rail_fast ship container cable_car subway aircraft wheelchair scooter drone"/>
    <edge id="-1010357948#2" from="9156968709" to="9156969774" priority="3" type="highway.residential" numLanes="1" speed="13.89" shape="9218.72,2111.75 9227.51,2124.21 9237.55,2140.88" disallow="tram rail_urban rail rail_electric rail_fast ship container cable_car subway aircraft wheelchair scooter drone"/>
    <edge id="-1010357948#3" from="9156969733" to="9156968709" priority="3" type="highway.residential" numLanes="1" speed="13.89" shape="9151.93,2046.27 9161.52,2054.52 9173.57,2061.80 9184.01,2074.54 9201.57,2095.10 9218.72,2111.75" disallow="tram rail_urban rail rail_electric rail_fast ship container cable_car subway aircraft wheelchair scooter drone"/>
    <edge id="-1010357948#4" from="9322224302" to="9156969733" priority="3" type="highway.residential" numLanes="1" speed="13.89" shape="8893.98,1752.63 8922.59,1742.50 8932.15,1740.83 8938.97,1741.07 8949.38,1746.47 8967.21,1763.78 9002.38,1814.99 9013.38,1832.34 9027.11,1850.48 9041.67,1868.63 9054.05,1891.66 9066.15,1912.00 9076.31,1925.26 9097.98,1946.65 9113.64,1967.23 9123.56,1988.11 9134.61,2017.14 9145.48,2039.09 9151.93,2046.27" disallow="tram rail_urban rail rail_electric rail_fast ship container cable_car subway aircraft wheelchair scooter drone"/>
    <edge id="-1010963507#0" from="9327109713" to="5046281923" priority="1" type="highway.service" numLanes="1" speed="5.56" allow="pedestrian delivery bicycle"/>
    <edge id="-1010963507#1" from="9327109707" to="9327109713" priority="1" type="highway.service" numLanes="1" speed="5.56" allow="pedestrian delivery bicycle"/>
    <edge id="-1010963508#0" from="9327109715" to="9327109713" priority="1" type="highway.service" numLanes="1" speed="5.56" shape="10358.02,1611.29 10356.26,1610.05 10352.65,1609.69 10274.23,1617.42" allow="pedestrian delivery bicycle"/>
    <edge id="-1010963508#1" from="9327112917" to="9327109715" priority="1" type="highway.service" numLanes="1" speed="5.56" shape="10276.64,1638.63 10356.15,1617.87 10357.89,1616.50 10358.56,1614.54 10358.02,1611.29" allow="pedestrian delivery bicycle"/>
    <edge id="-1010963509" from="9327112919" to="9327112918" priority="1" type="highway.service" numLanes="1" speed="5.56" allow="pedestrian delivery bicycle"/>
    <edge id="-1010963510" from="9327112920" to="9327109709" priority="1" type="highway.service" numLanes="1" speed="5.56" shape="10398.70,1729.65 10327.52,1745.53 10295.43,1750.64" allow="pedestrian delivery bicycle"/>
    <edge id="-1028936842" from="9486057492" to="9486057491" priority="3" type="highway.residential" numLanes="1" speed="13.89" disallow="tram rail_urban rail rail_electric rail_fast ship container cable_car subway aircraft wheelchair scooter drone"/>
    <edge id="-1028940588" from="9486093493" to="9486093491" priority="3" type="highway.residential" numLanes="1" speed="13.89" shape="8983.97,1044.74 8868.10,1074.94 8828.69,1089.73" disallow="tram rail_urban rail rail_electric rail_fast ship container cable_car subway aircraft wheelchair scooter drone"/>
    <edge id="-1028941365#0" from="9503927169" to="cluster_12909019419_12909019422" priority="3" type="highway.residential" numLanes="1" speed="13.89" shape="11651.41,1789.66 11657.00,1778.64 11663.23,1771.93 11674.31,1760.53 11680.38,1739.66 11678.58,1712.93 11654.34,1636.97 11653.78,1634.93" disallow="tram rail_urban rail rail_electric rail_fast ship container cable_car subway aircraft wheelchair scooter drone"/>
    <edge id="-1028941365#1" from="cluster_9503864037_9503927179" to="9503927169" priority="3" type="highway.residential" numLanes="1" speed="13.89" shape="11539.34,1889.36 11557.92,1877.17 11582.18,1864.86 11616.41,1849.65 11623.77,1844.87 11633.17,1835.73 11643.29,1819.57 11647.52,1810.11 11651.41,1789.66" disallow="tram rail_urban rail rail_electric rail_fast ship container cable_car subway aircraft wheelchair scooter drone"/>
    <edge id="-1028941365#10" from="9488494312" to="9489615304" priority="3" type="highway.residential" numLanes="1" speed="13.89" shape="11797.32,2365.53 11778.37,2351.98 11756.59,2336.04" disallow="tram rail_urban rail rail_electric rail_fast ship container cable_car subway aircraft wheelchair scooter drone"/>
    <edge id="-1028941365#11" from="9488494288" to="9488494312" priority="3" type="highway.residential" numLanes="1" speed="13.89" disallow="tram rail_urban rail rail_electric rail_fast ship container cable_car subway aircraft wheelchair scooter drone"/>
    <edge id="-1028941365#12" from="9488494310" to="9488494288" priority="3" type="highway.residential" numLanes="1" speed="13.89" shape="11849.18,2416.38 11842.01,2410.26 11826.33,2393.98" disallow="tram rail_urban rail rail_electric rail_fast ship container cable_car subway aircraft wheelchair scooter drone"/>
    <edge id="-1028941365#13" from="cluster_9488494286_9491621389" to="9488494310" priority="3" type="highway.residential" numLanes="1" speed="13.89" shape="11910.93,2465.78 11893.55,2464.03 11888.67,2462.11 11886.06,2459.53 11880.50,2450.51 11873.30,2437.61 11870.69,2434.07 11866.12,2429.56 11849.18,2416.38" disallow="tram rail_urban rail rail_electric rail_fast ship container cable_car subway aircraft wheelchair scooter drone"/>
    <edge id="-1028941365#15" from="9486107672" to="cluster_9488494286_9491621389" priority="3" type="highway.residential" numLanes="1" speed="13.89" shape="11969.55,2496.41 11955.94,2473.78 11951.28,2468.81 11946.25,2466.14 11938.91,2465.40 11925.09,2466.39" disallow="tram rail_urban rail rail_electric rail_fast ship container cable_car subway aircraft wheelchair scooter drone"/>
    <edge id="-1028941365#16" from="9486107684" to="9486107672" priority="3" type="highway.residential" numLanes="1" speed="13.89" shape="12067.36,2717.32 12050.70,2704.71 12040.23,2694.76 12035.96,2689.01 12025.86,2674.07 12009.90,2645.31 12002.13,2631.90 11999.00,2622.69 11995.87,2609.64 11989.57,2579.31 11983.66,2548.99 11973.46,2507.14 11969.55,2496.41" disallow="tram rail_urban rail rail_electric rail_fast ship container cable_car subway aircraft wheelchair scooter drone"/>
    <edge id="-1028941365#17" from="9486170465" to="9486107684" priority="3" type="highway.residential" numLanes="1" speed="13.89" disallow="tram rail_urban rail rail_electric rail_fast ship container cable_car subway aircraft wheelchair scooter drone"/>
    <edge id="-1028941365#18" from="12025322140" to="9486170465" priority="3" type="highway.residential" numLanes="1" speed="13.89" shape="12367.64,2870.84 12362.72,2869.50 12334.12,2865.00 12325.07,2862.89 12308.20,2858.95 12290.40,2852.10 12284.21,2849.06 12270.27,2839.50 12257.10,2830.71 12228.44,2811.22 12192.80,2787.54 12152.92,2764.25 12104.92,2739.47 12094.97,2733.61" disallow="tram rail_urban rail rail_electric rail_fast ship container cable_car subway aircraft wheelchair scooter drone"/>
    <edge id="-1028941365#3" from="9503868165" to="cluster_9503864037_9503927179" priority="3" type="highway.residential" numLanes="1" speed="13.89" shape="11499.63,1923.18 11506.42,1914.05 11520.81,1902.24" disallow="tram rail_urban rail rail_electric rail_fast ship container cable_car subway aircraft wheelchair scooter drone"/>
    <edge id="-1028941365#4" from="9503868160" to="9503868165" priority="3" type="highway.residential" numLanes="1" speed="13.89" shape="11512.11,1991.03 11510.51,1985.63 11500.11,1946.82 11498.02,1937.31 11497.74,1929.97 11499.63,1923.18" disallow="tram rail_urban rail rail_electric rail_fast ship container cable_car subway aircraft wheelchair scooter drone"/>
    <edge id="-1028941365#5" from="9503868158" to="9503868160" priority="3" type="highway.residential" numLanes="1" speed="13.89" shape="11530.70,2027.31 11528.80,2019.65 11512.11,1991.03" disallow="tram rail_urban rail rail_electric rail_fast ship container cable_car subway aircraft wheelchair scooter drone"/>
    <edge id="-1028941365#6" from="9503868151" to="9503868158" priority="3" type="highway.residential" numLanes="1" speed="13.89" shape="11493.05,2112.68 11492.54,2105.52 11493.34,2098.31 11498.88,2084.92 11521.41,2053.02 11529.30,2040.44 11531.18,2033.64 11530.70,2027.31" disallow="tram rail_urban rail rail_electric rail_fast ship container cable_car subway aircraft wheelchair scooter drone"/>
    <edge id="-1028941365#7" from="9503868149" to="9503868151" priority="3" type="highway.residential" numLanes="1" speed="13.89" shape="11517.31,2159.71 11495.89,2119.84 11493.05,2112.68" disallow="tram rail_urban rail rail_electric rail_fast ship container cable_car subway aircraft wheelchair scooter drone"/>
    <edge id="-1028941365#8" from="9503827314" to="9503868149" priority="3" type="highway.residential" numLanes="1" speed="13.89" shape="11541.87,2201.05 11533.22,2187.78 11517.31,2159.71" disallow="tram rail_urban rail rail_electric rail_fast ship container cable_car subway aircraft wheelchair scooter drone"/>
    <edge id="-1028941365#9" from="9489615304" to="9503827314" priority="3" type="highway.residential" numLanes="1" speed="13.89" shape="11756.59,2336.04 11748.05,2329.80 11707.94,2297.62 11684.87,2282.91 11668.26,2274.90 11651.30,2270.30 11634.33,2265.53 11622.06,2260.02 11597.49,2245.95 11564.07,2225.65 11558.95,2222.24 11554.67,2218.33 11547.62,2209.86 11541.87,2201.05" disallow="tram rail_urban rail rail_electric rail_fast ship container cable_car subway aircraft wheelchair scooter drone"/>
    <edge id="-1028945804#0" from="9488503368" to="9486161802" priority="3" type="highway.residential" numLanes="1" speed="13.89" disallow="tram rail_urban rail rail_electric rail_fast ship container cable_car subway aircraft wheelchair scooter drone"/>
    <edge id="-1028945804#1" from="9486161806" to="9488503368" priority="3" type="highway.residential" numLanes="1" speed="13.89" shape="12273.19,2567.80 12284.10,2561.50 12285.72,2556.88 12284.88,2553.35 12248.58,2488.28" disallow="tram rail_urban rail rail_electric rail_fast ship container cable_car subway aircraft wheelchair scooter drone"/>
    <edge id="-1028945804#2" from="cluster_9486161807_9494656414" to="9486161806" priority="3" type="highway.residential" numLanes="1" speed="13.89" shape="12251.53,2581.73 12273.19,2567.80" disallow="tram rail_urban rail rail_electric rail_fast ship container cable_car subway aircraft wheelchair scooter drone"/>
    <edge id="-1028945804#3" from="9486170454" to="cluster_9486161807_9494656414" priority="3" type="highway.residential" numLanes="1" speed="13.89" shape="12304.74,2633.56 12295.99,2636.98 12285.90,2639.74 12282.89,2639.75 12279.60,2636.50 12251.53,2581.73" disallow="tram rail_urban rail rail_electric rail_fast ship container cable_car subway aircraft wheelchair scooter drone"/>
    <edge id="-1028945804#4" from="cluster_9486170443_9486170456" to="9486170454" priority="3" type="highway.residential" numLanes="1" speed="13.89" shape="12375.06,2606.63 12371.01,2608.18 12343.08,2618.79 12321.91,2626.83 12304.74,2633.56" disallow="tram rail_urban rail rail_electric rail_fast ship container cable_car subway aircraft wheelchair scooter drone"/>
    <edge id="-1028945804#6" from="9486170424" to="cluster_9486170443_9486170456" priority="3" type="highway.residential" numLanes="1" speed="13.89" shape="12616.73,2576.39 12564.84,2527.43 12558.53,2521.47 12554.30,2518.58 12550.40,2518.27 12545.85,2519.26 12523.97,2533.16 12497.24,2550.13 12483.89,2557.49 12457.68,2571.92 12447.44,2577.32 12437.90,2582.34 12414.12,2591.72 12378.94,2605.15" disallow="tram rail_urban rail rail_electric rail_fast ship container cable_car subway aircraft wheelchair scooter drone"/>
    <edge id="-1028945808#0" from="9488462916" to="cluster_9486170443_9486170456" priority="3" type="highway.residential" numLanes="1" speed="13.89" shape="12388.74,2652.81 12387.29,2647.91 12375.06,2606.63" disallow="tram rail_urban rail rail_electric rail_fast ship container cable_car subway aircraft wheelchair scooter drone"/>
    <edge id="-1028945808#1" from="9486170450" to="9488462916" priority="3" type="highway.residential" numLanes="1" speed="13.89" shape="12500.50,2660.13 12463.39,2669.43 12443.33,2676.04 12411.67,2682.30 12403.17,2683.10 12398.92,2681.96 12396.59,2679.28 12388.74,2652.81" disallow="tram rail_urban rail rail_electric rail_fast ship container cable_car subway aircraft wheelchair scooter drone"/>
    <edge id="-1028945810" from="9486161806" to="9486170454" priority="3" type="highway.residential" numLanes="1" speed="13.89" disallow="tram rail_urban rail rail_electric rail_fast ship container cable_car subway aircraft wheelchair scooter drone"/>
    <edge id="-1028945812" from="9486170457" to="cluster_9486170443_9486170456" priority="3" type="highway.residential" numLanes="1" speed="13.89" shape="12345.29,2539.50 12378.94,2605.15" disallow="tram rail_urban rail rail_electric rail_fast ship container cable_car subway aircraft wheelchair scooter drone"/>
    <edge id="-1028945813#0" from="cluster_9489615177_9489615179" to="9489615181" priority="3" type="highway.residential" numLanes="1" speed="13.89" shape="11783.00,2670.27 11777.09,2699.11 11763.34,2744.54" disallow="tram rail_urban rail rail_electric rail_fast ship container cable_car subway aircraft wheelchair scooter drone"/>
    <edge id="-1028945813#2" from="9489615174" to="cluster_9489615177_9489615179" priority="3" type="highway.residential" numLanes="1" speed="13.89" shape="11850.23,2682.15 11824.87,2664.91 11802.77,2648.08 11796.99,2645.60 11791.96,2645.24 11787.34,2647.56" disallow="tram rail_urban rail rail_electric rail_fast ship container cable_car subway aircraft wheelchair scooter drone"/>
    <edge id="-1028945813#3" from="9489606614" to="9489615174" priority="3" type="highway.residential" numLanes="1" speed="13.89" shape="11919.86,2735.30 11906.28,2721.12 11887.28,2707.35 11850.23,2682.15" disallow="tram rail_urban rail rail_electric rail_fast ship container cable_car subway aircraft wheelchair scooter drone"/>
    <edge id="-1028945813#4" from="9486170464" to="9489606614" priority="3" type="highway.residential" numLanes="1" speed="13.89" shape="12052.68,2791.33 12020.47,2784.13 11972.34,2769.64 11942.71,2758.47 11936.18,2754.07 11927.05,2744.49 11919.86,2735.30" disallow="tram rail_urban rail rail_electric rail_fast ship container cable_car subway aircraft wheelchair scooter drone"/>
    <edge id="-1028945813#5" from="9486170463" to="9486170464" priority="3" type="highway.residential" numLanes="1" speed="13.89" shape="12201.00,2840.50 12137.51,2813.03 12085.01,2798.56 12052.68,2791.33" disallow="tram rail_urban rail rail_electric rail_fast ship container cable_car subway aircraft wheelchair scooter drone"/>
    <edge id="-1028945814" from="9486170465" to="9486170464" priority="3" type="highway.residential" numLanes="1" speed="13.89" disallow="tram rail_urban rail rail_electric rail_fast ship container cable_car subway aircraft wheelchair scooter drone"/>
    <edge id="-1029183675#0" from="9488925336" to="9488525692" priority="3" type="highway.residential" numLanes="1" speed="13.89" shape="12027.66,3286.79 12022.74,3292.05 12020.30,3295.32 12019.23,3300.76 12019.25,3307.82 12020.11,3319.84 12022.92,3338.12 12028.77,3368.53 12035.29,3409.07 12036.72,3420.26 12036.29,3429.16 12035.62,3434.87 12033.58,3441.51" disallow="tram rail_urban rail rail_electric rail_fast ship container cable_car subway aircraft wheelchair scooter drone"/>
    <edge id="-1029183675#1" from="9488944962" to="9488925336" priority="3" type="highway.residential" numLanes="1" speed="13.89" shape="12130.20,3011.17 12130.43,3014.56 12133.51,3035.74 12139.36,3065.32 12142.48,3096.01 12143.64,3115.02 12142.92,3139.48 12141.58,3146.81 12139.68,3151.98 12135.07,3160.42 12117.16,3190.64 12100.32,3218.41 12095.43,3225.49 12090.81,3230.41 12083.26,3236.29 12066.29,3249.51 12034.44,3279.51 12027.66,3286.79" disallow="tram rail_urban rail rail_electric rail_fast ship container cable_car subway aircraft wheelchair scooter drone"/>
    <edge id="-1029183675#2" from="12025236329" to="9488944962" priority="3" type="highway.residential" numLanes="1" speed="13.89" shape="12114.37,2919.38 12116.17,2928.50 12124.25,2969.21 12129.55,3001.25 12130.20,3011.17" disallow="tram rail_urban rail rail_electric rail_fast ship container cable_car subway aircraft wheelchair scooter drone"/>
    <edge id="-1029183715#0" from="9488944955" to="9488462907" priority="3" type="highway.residential" numLanes="1" speed="13.89" shape="12363.28,3025.01 12419.08,3101.60 12451.23,3150.57" disallow="tram rail_urban rail rail_electric rail_fast ship container cable_car subway aircraft wheelchair scooter drone"/>
    <edge id="-1029183715#1" from="12025236337" to="9488944955" priority="3" type="highway.residential" numLanes="1" speed="13.89" shape="12294.76,2904.54 12293.58,2933.56 12294.90,2944.90 12297.22,2950.83 12302.14,2957.39 12320.93,2972.48 12329.58,2982.09 12355.34,3014.12 12363.28,3025.01" disallow="tram rail_urban rail rail_electric rail_fast ship container cable_car subway aircraft wheelchair scooter drone"/>
    <edge id="-1029183716" from="9488462916" to="9488462915" priority="3" type="highway.residential" numLanes="1" speed="13.89" disallow="tram rail_urban rail rail_electric rail_fast ship container cable_car subway aircraft wheelchair scooter drone"/>