<?xml version="1.0" encoding="UTF-8"?>

<!-- generated on 2026-01-12T12:33:35.620770+05:30 by Eclipse SUMO netconvert 1.25.0
<netconvertConfiguration xmlns:xsi="http://www.w3.org/2001/XMLSchema-instance" xsi:noNamespaceSchemaLocation="http://sumo.dlr.de/xsd/netconvertConfiguration.xsd">

    <input>
        <sumo-net-file value="iit_ism_tls.net.xml"/>
    </input>

    <output>
        <plain-output-prefix value="check"/>
    </output>

    <processing>
        <geometry.min-radius.fix.railways value="false"/>
        <geometry.avoid-overlap value="false"/>
        <geometry.max-grade.fix value="false"/>
        <offset.disable-normalization value="true"/>
        <lefthand value="0"/>
    </processing>

    <junctions>
        <no-turnarounds value="true"/>
        <junctions.corner-detail value="5"/>
        <junctions.limit-turn-speed value="5.50"/>
        <rectangular-lane-cut value="0"/>
    </junctions>

    <pedestrian>
        <walkingareas value="0"/>
    </pedestrian>

</netconvertConfiguration>
-->

<nodes version="1.20" xmlns:xsi="http://www.w3.org/2001/XMLSchema-instance" xsi:noNamespaceSchemaLocation="http://sumo.dlr.de/xsd/nodes_file.xsd">
    <location netOffset="-433343.48,-2632026.27" convBoundary="0.00,0.00,15513.24,3843.31" origBoundary="86.345531,23.798453,86.497844,23.833159" projParameter="+proj=utm +zone=45 +ellps=WGS84 +datum=WGS84 +units=m +no_defs"/>

    <node id="10207089526" x="7944.83" y="1550.66" type="priority"/>
    <node id="10211964973" x="11295.20" y="1390.12" type="priority"/>
    <node id="10211964975" x="11327.21" y="1485.64" type="priority"/>
    <node id="10225456692" x="7911.98" y="725.09" type="priority"/>
    <node id="10230598017" x="9622.39" y="1615.51" type="priority"/>
    <node id="10230598106" x="8005.51" y="1322.52" type="priority"/>
    <node id="10230684555" x="8946.14" y="777.61" type="priority"/>
    <node id="10230684557" x="9068.91" y="801.40" type="priority"/>
    <node id="10230684559" x="9161.57" y="790.27" type="priority"/>
    <node id="10230684560" x="9017.43" y="753.35" type="priority"/>
    <node id="10230684562" x="9191.56" y="562.82" type="priority"/>
    <node id="10254978836" x="11811.83" y="1205.45" type="priority"/>
    <node id="10275670659" x="11840.83" y="810.51" type="priority"/>
    <node id="10291209084" x="9194.55" y="1152.10" type="priority"/>
    <node id="10291209085" x="9184.19" y="1118.12" type="priority"/>
    <node id="10291209090" x="9192.92" y="1047.98" type="priority"/>
    <node id="10536397455" x="7405.60" y="1376.09" type="priority"/>
    <node id="10567495812" x="11771.38" y="1399.32" type="priority"/>
    <node id="10636094105" x="7752.66" y="1085.61" type="right_before_left"/>
    <node id="10636094106" x="7720.62" y="1073.37" type="priority"/>
    <node id="10718084113" x="8927.18" y="1958.47" type="priority"/>
    <node id="10718084120" x="8805.95" y="2008.70" type="priority"/>
    <node id="11012223643" x="8781.47" y="805.59" type="priority"/>
    <node id="11012223644" x="8813.41" y="727.03" type="priority"/>
    <node id="11052232834" x="10064.21" y="1414.79" type="priority"/>
    <node id="11052232835" x="10075.97" y="1405.13" type="priority"/>
    <node id="11052232838" x="10351.93" y="1418.48" type="priority"/>
    <node id="11056630635" x="9105.51" y="2406.22" type="priority"/>
    <node id="11104017504" x="10563.91" y="1885.94" type="priority"/>
    <node id="11105607841" x="10258.15" y="807.13" type="priority"/>
    <node id="11124426066" x="11429.64" y="1397.40" type="priority"/>
    <node id="11135680045" x="11393.89" y="1616.78" type="priority"/>
    <node id="11135680049" x="11378.49" y="1582.06" type="priority"/>
    <node id="11135680051" x="11394.27" y="1539.49" type="priority"/>
    <node id="11140319217" x="9300.04" y="2674.64" type="priority"/>
    <node id="11140366189" x="9059.40" y="868.30" type="priority"/>
    <node id="11140366190" x="9129.84" y="857.63" type="priority"/>
    <node id="11140366191" x="8970.42" y="859.01" type="priority"/>
    <node id="11153704635" x="9393.09" y="2520.44" type="priority"/>
    <node id="11153704636" x="9371.80" y="2529.64" type="priority"/>
    <node id="11168787804" x="9394.79" y="1119.13" type="priority"/>
    <node id="11168856608" x="9368.53" y="1453.36" type="priority"/>
    <node id="11189595334" x="9706.98" y="2034.17" type="priority"/>
    <node id="11189614837" x="9676.75" y="2148.13" type="priority"/>
    <node id="11209420754" x="9307.74" y="2221.70" type="priority"/>
    <node id="11219319759" x="7562.43" y="1262.45" type="priority"/>
    <node id="11226282672" x="11304.33" y="1667.41" type="priority"/>
    <node id="11250368159" x="11763.06" y="457.20" type="priority"/>
    <node id="11250368160" x="11748.63" y="444.17" type="priority"/>
    <node id="11252398986" x="12364.08" y="1364.13" type="priority"/>
    <node id="11328968457" x="10904.80" y="960.72" type="priority"/>
    <node id="11328968458" x="10957.33" y="910.44" type="priority"/>
    <node id="11397246515" x="9378.49" y="2043.69" type="priority"/>
    <node id="11414129342" x="9284.91" y="2255.33" type="priority"/>
    <node id="11414129343" x="9276.73" y="2240.24" type="priority"/>
    <node id="11414129344" x="9489.21" y="1742.97" type="priority"/>
    <node id="11436636900" x="10872.27" y="1426.16" type="priority"/>
    <node id="11765989776" x="9531.53" y="907.83" type="priority"/>
    <node id="11875836572" x="10351.83" y="1069.83" type="priority"/>
    <node id="11987181774" x="10495.61" y="1819.26" type="priority"/>
    <node id="11993446214" x="11423.35" y="1603.69" type="priority"/>
    <node id="11993446215" x="11448.55" y="1685.94" type="priority"/>
    <node id="12009174636" x="9470.44" y="1137.83" type="priority"/>
    <node id="12009174639" x="9180.02" y="1340.91" type="priority"/>
    <node id="12024066936" x="0.00" y="3175.58" type="dead_end"/>
    <node id="12025126821" x="5866.60" y="2465.09" type="priority"/>
    <node id="12025135389" x="7434.87" y="3718.73" type="dead_end"/>
    <node id="12025135416" x="7442.26" y="3700.87" type="priority"/>
    <node id="12025135845" x="6675.14" y="2021.71" type="priority"/>
    <node id="12025135854" x="6668.93" y="2031.16" type="priority"/>
    <node id="12025135866" x="6681.55" y="2016.06" type="priority"/>
    <node id="12025158176" x="6664.46" y="2038.45" type="priority"/>
    <node id="12025158214" x="7159.62" y="2933.57" type="priority"/>
    <node id="12025158223" x="7277.26" y="3255.43" type="priority"/>
    <node id="12025214123" x="9171.32" y="3843.31" type="priority"/>
    <node id="12025220416" x="8816.35" y="3813.90" type="dead_end"/>
    <node id="12025220420" x="10087.90" y="3470.66" type="priority"/>
    <node id="12025220455" x="10640.93" y="3295.52" type="priority"/>
    <node id="12025220457" x="11304.72" y="3141.76" type="priority"/>
    <node id="12025236277" x="11307.28" y="3149.13" type="priority"/>
    <node id="12025236305" x="11409.94" y="3109.01" type="priority"/>
    <node id="12025236307" x="11531.95" y="3071.53" type="priority"/>
    <node id="12025236323" x="11815.75" y="2972.71" type="priority"/>
    <node id="12025236329" x="12114.37" y="2919.38" type="priority"/>
    <node id="12025236334" x="12065.44" y="2895.76" type="priority"/>
    <node id="12025236337" x="12294.76" y="2904.54" type="priority"/>
    <node id="12025322140" x="12367.64" y="2870.84" type="priority"/>
    <node id="12025322147" x="12749.75" y="2859.72" type="priority"/>
    <node id="12025322157" x="12704.59" y="2835.99" type="priority"/>
    <node id="12399667207" x="9619.08" y="1276.51" type="priority"/>
    <node id="12399667210" x="9471.23" y="1334.42" type="priority"/>
    <node id="12399840616" x="9636.48" y="1323.17" type="priority"/>
    <node id="12866689524" x="12313.47" y="1266.85" type="priority"/>
    <node id="12909019423" x="11628.99" y="1618.72" type="priority"/>
    <node id="12958916715" x="8538.23" y="1036.43" type="priority"/>
    <node id="12958916716" x="8522.99" y="992.50" type="priority"/>
    <node id="13103166777" x="11191.06" y="1473.63" type="priority"/>
    <node id="13103166782" x="11213.39" y="1478.39" type="priority"/>
    <node id="1325436989" x="9415.73" y="11.84" type="dead_end"/>
    <node id="1325437219" x="6658.09" y="2021.12" type="dead_end"/>
    <node id="13371329163" x="11152.27" y="1664.44" type="priority"/>
    <node id="2466494873" x="9930.19" y="759.07" type="priority"/>
    <node id="3989017452" x="9718.42" y="94.54" type="priority"/>
    <node id="3989017455" x="9952.93" y="527.41" type="priority"/>
    <node id="3989017468" x="10472.43" y="410.93" type="priority"/>
    <node id="3989017469" x="10625.42" y="448.65" type="priority"/>
    <node id="3989017470" x="10377.20" y="419.40" type="priority"/>
    <node id="3989017471" x="10394.91" y="484.27" type="priority"/>
    <node id="3989017472" x="10417.27" y="547.06" type="priority"/>
    <node id="3989017473" x="10580.39" y="480.61" type="priority"/>
    <node id="3989017479" x="10465.83" y="522.60" type="priority"/>
    <node id="3989017482" x="10496.04" y="507.24" type="priority"/>
    <node id="3989017484" x="10487.27" y="482.54" type="priority"/>
    <node id="3989017492" x="10772.58" y="399.04" type="priority"/>
    <node id="3989017493" x="10770.02" y="362.08" type="priority"/>
    <node id="3989017494" x="10413.68" y="414.27" type="priority"/>
    <node id="3989017499" x="10236.00" y="266.72" type="priority"/>
    <node id="3989017501" x="10058.75" y="355.31" type="priority"/>
    <node id="3989017503" x="10133.00" y="499.27" type="priority"/>
    <node id="3989017504" x="10099.89" y="421.16" type="priority"/>
    <node id="3989017509" x="10238.39" y="340.25" type="priority"/>
    <node id="3989017510" x="10307.09" y="452.44" type="priority"/>
    <node id="3989017516" x="10374.27" y="284.57" type="priority"/>
    <node id="5046281115" x="9439.12" y="2134.60" type="priority"/>
    <node id="5046281117" x="9601.88" y="2004.25" type="priority"/>
    <node id="5046281224" x="9476.09" y="1629.98" type="priority"/>
    <node id="5046281241" x="9525.59" y="2079.76" type="priority"/>
    <node id="5046281243" x="9668.07" y="1854.45" type="priority"/>
    <node id="5046281246" x="9660.32" y="1762.74" type="priority"/>
    <node id="5046281250" x="9659.40" y="1719.62" type="right_before_left"/>
    <node id="5046281253" x="9710.73" y="1669.66" type="right_before_left"/>
    <node id="5046281262" x="9970.03" y="1723.19" type="right_before_left"/>
    <node id="5046281293" x="9826.21" y="1707.74" type="right_before_left"/>
    <node id="5046281316" x="9590.21" y="1664.15" type="right_before_left"/>
    <node id="5046281635" x="9814.64" y="1563.11" type="right_before_left"/>
    <node id="5046281637" x="9767.57" y="1672.91" type="right_before_left"/>
    <node id="5046281663" x="9814.23" y="1393.17" type="priority"/>
    <node id="5046281665" x="9855.50" y="1405.63" type="priority"/>
    <node id="5046281674" x="9722.01" y="1547.68" type="right_before_left"/>
    <node id="5046281677" x="9724.15" y="1482.84" type="right_before_left"/>
    <node id="5046281678" x="9735.13" y="1520.26" type="priority"/>
    <node id="5046281691" x="9709.40" y="1510.51" type="priority"/>
    <node id="5046281696" x="9552.13" y="1497.35" type="priority"/>
    <node id="5046281697" x="9470.32" y="1378.34" type="priority"/>
    <node id="5046281719" x="9983.57" y="1620.98" type="right_before_left"/>
    <node id="5046281720" x="9971.66" y="1482.01" type="priority"/>
    <node id="5046281923" x="10251.47" y="1615.15" type="right_before_left"/>
    <node id="5046281932" x="9222.70" y="2346.58" type="priority"/>
    <node id="5046281933" x="9322.41" y="2268.31" type="priority"/>
    <node id="5046281934" x="9255.72" y="2277.44" type="priority"/>
    <node id="5046281935" x="9276.34" y="2304.47" type="priority"/>
    <node id="5135330426" x="12513.77" y="965.46" type="priority"/>
    <node id="5135330429" x="12488.58" y="966.03" type="dead_end"/>
    <node id="5135330431" x="12479.59" y="977.97" type="dead_end"/>
    <node id="5135330435" x="12217.27" y="743.00" type="priority"/>
    <node id="5135330437" x="12208.36" y="754.95" type="priority"/>
    <node id="5135330441" x="12218.31" y="781.61" type="priority"/>
    <node id="5135330446" x="12252.42" y="769.24" type="priority"/>
    <node id="5135330450" x="12245.51" y="744.47" type="priority"/>
    <node id="5135330451" x="12243.83" y="780.77" type="priority"/>
    <node id="5135330452" x="12472.97" y="1017.13" type="priority"/>
    <node id="5135330458" x="11792.70" y="1650.51" type="priority"/>
    <node id="5135330459" x="11746.79" y="1671.76" type="priority"/>
    <node id="5135330463" x="11980.66" y="324.56" type="priority"/>
    <node id="5135330467" x="11543.95" y="243.49" type="priority"/>
    <node id="5135330471" x="11869.39" y="389.45" type="priority"/>
    <node id="5135330477" x="12045.26" y="597.97" type="priority"/>
    <node id="5135330480" x="12039.50" y="577.75" type="priority"/>
    <node id="5135330481" x="12011.27" y="610.81" type="priority"/>
    <node id="5135330484" x="12031.60" y="613.44" type="priority"/>
    <node id="5135330490" x="12006.96" y="579.34" type="priority"/>
    <node id="5135330491" x="12139.74" y="450.93" type="priority"/>
    <node id="5135330501" x="12154.61" y="1420.20" type="priority"/>
    <node id="5135330503" x="12352.73" y="618.29" type="priority"/>
    <node id="5135330518" x="12256.56" y="300.25" type="priority"/>
    <node id="5135330640" x="12055.60" y="1480.97" type="priority"/>
    <node id="5135330644" x="12003.64" y="1090.45" type="priority"/>
    <node id="5135330647" x="11359.24" y="1485.22" type="priority"/>
    <node id="5135330650" x="11382.60" y="1454.79" type="priority"/>
    <node id="5135330658" x="11969.53" y="1291.78" type="priority"/>
    <node id="5135330659" x="11457.86" y="1453.34" type="priority"/>
    <node id="5135330660" x="11433.83" y="1321.39" type="priority"/>
    <node id="5135330662" x="11451.68" y="1255.14" type="priority"/>
    <node id="5135330665" x="11500.88" y="1134.44" type="priority"/>
    <node id="5135330667" x="11420.89" y="988.95" type="priority"/>
    <node id="5135330671" x="11332.68" y="589.52" type="priority"/>
    <node id="5135330916" x="7055.06" y="390.14" type="priority"/>
    <node id="5266691119" x="8701.41" y="745.89" type="priority"/>
    <node id="5266691120" x="8708.36" y="719.88" type="priority"/>
    <node id="5266691323" x="8695.32" y="739.75" type="priority"/>
    <node id="5266691329" x="8715.67" y="722.35" type="priority"/>
    <node id="5266691334" x="8717.67" y="743.23" type="priority"/>
    <node id="5266691339" x="8587.29" y="704.36" type="priority"/>
    <node id="5266691343" x="8639.52" y="722.26" type="priority"/>
    <node id="5266691355" x="8720.19" y="739.65" type="priority"/>
    <node id="5266691361" x="8766.00" y="728.27" type="priority"/>
    <node id="5266691374" x="8878.42" y="727.56" type="priority"/>
    <node id="5266691399" x="9367.21" y="0.00" type="priority"/>
    <node id="5266691503" x="8373.36" y="110.57" type="priority"/>
    <node id="5266835358" x="7434.89" y="517.42" type="priority"/>
    <node id="5266835489" x="8463.86" y="346.40" type="priority"/>
    <node id="5266835500" x="8507.69" y="467.53" type="priority"/>
    <node id="5266835506" x="8816.73" y="361.96" type="priority"/>
    <node id="5266835516" x="8848.70" y="538.04" type="priority"/>
    <node id="5266835517" x="8424.49" y="582.47" type="priority"/>
    <node id="5266835532" x="8703.43" y="459.72" type="priority"/>
    <node id="5266835537" x="8974.85" y="584.65" type="priority"/>
    <node id="5266835538" x="8696.32" y="587.00" type="priority"/>
    <node id="5266835569" x="8786.94" y="726.40" type="priority"/>
    <node id="5266835573" x="8582.42" y="573.63" type="priority"/>
    <node id="5266835574" x="8659.96" y="461.45" type="priority"/>
    <node id="5266835583" x="8676.62" y="285.33" type="priority"/>
    <node id="5266847691" x="8806.52" y="255.84" type="priority"/>
    <node id="5266847703" x="9034.34" y="349.33" type="priority"/>
    <node id="5266847704" x="9097.98" y="442.55" type="priority"/>
    <node id="5266847706" x="8846.61" y="456.20" type="priority"/>
    <node id="5266847712" x="8961.65" y="312.17" type="priority"/>
    <node id="5266847713" x="8836.71" y="239.77" type="priority"/>
    <node id="5266847716" x="8838.99" y="509.81" type="priority"/>
    <node id="5266847833" x="9048.45" y="479.83" type="priority"/>
    <node id="5266847834" x="8554.09" y="465.67" type="priority"/>
    <node id="5266847844" x="8656.66" y="365.40" type="priority"/>
    <node id="5266847845" x="8596.29" y="383.63" type="priority"/>
    <node id="5266847855" x="8626.88" y="462.77" type="priority"/>
    <node id="5266847856" x="8733.19" y="346.94" type="priority"/>
    <node id="5266847857" x="8735.29" y="458.45" type="priority"/>
    <node id="5266847870" x="8942.29" y="445.23" type="priority"/>
    <node id="5266847884" x="9117.81" y="427.62" type="priority"/>
    <node id="5266943339" x="8155.09" y="402.62" type="priority"/>
    <node id="5266943341" x="8096.92" y="457.44" type="priority"/>
    <node id="5266943345" x="8068.02" y="505.61" type="priority"/>
    <node id="5266943359" x="8226.44" y="605.22" type="priority"/>
    <node id="5266943368" x="8194.09" y="717.26" type="priority"/>
    <node id="5266943377" x="7992.17" y="824.78" type="priority"/>
    <node id="5266943386" x="7946.74" y="744.33" type="priority"/>
    <node id="5266943387" x="7934.13" y="752.11" type="priority"/>
    <node id="5266943388" x="7944.54" y="770.27" type="priority"/>
    <node id="5266943419" x="8141.86" y="599.92" type="dead_end"/>
    <node id="5266943533" x="8164.12" y="595.00" type="dead_end"/>
    <node id="5268161726" x="10833.42" y="1430.31" type="priority"/>
    <node id="5719133867" x="10967.00" y="1879.96" type="priority"/>
    <node id="5719133900" x="10695.04" y="1909.53" type="priority"/>
    <node id="5719205318" x="7861.56" y="1843.50" type="priority"/>
    <node id="5719205921" x="7968.00" y="1950.65" type="priority"/>
    <node id="5719205923" x="7896.45" y="1898.35" type="priority"/>
    <node id="5719206110" x="7996.05" y="1454.43" type="priority"/>
    <node id="5719206114" x="8128.16" y="1560.41" type="priority"/>
    <node id="5719206115" x="8104.21" y="1584.95" type="priority"/>
    <node id="5719234856" x="8780.01" y="966.65" type="priority"/>
    <node id="5719234862" x="9101.04" y="1068.00" type="priority"/>
    <node id="5719234870" x="9331.46" y="1160.42" type="priority"/>
    <node id="5719247430" x="8442.34" y="1010.32" type="priority"/>
    <node id="5719247433" x="8365.98" y="912.28" type="priority"/>
    <node id="5719247436" x="8471.54" y="1071.60" type="priority"/>
    <node id="5719247446" x="7962.25" y="1410.56" type="priority"/>
    <node id="5719254135" x="11327.50" y="465.42" type="priority"/>
    <node id="5719254142" x="10742.17" y="749.32" type="priority"/>
    <node id="5719254145" x="10630.97" y="658.39" type="priority"/>
    <node id="5719254146" x="10527.62" y="687.56" type="priority"/>
    <node id="5719254150" x="10240.55" y="919.54" type="priority"/>
    <node id="5719303704" x="7715.68" y="1445.80" type="priority"/>
    <node id="5719303706" x="7660.04" y="1399.83" type="priority"/>
    <node id="5719303707" x="7626.69" y="1330.42" type="priority"/>
    <node id="5719303712" x="7390.46" y="1556.35" type="priority"/>
    <node id="5719310465" x="7054.85" y="872.51" type="priority"/>
    <node id="5719342508" x="9353.59" y="813.78" type="priority"/>
    <node id="5719342509" x="9400.56" y="807.07" type="priority"/>
    <node id="5719342510" x="9441.52" y="799.83" type="priority"/>
    <node id="5719342515" x="9551.41" y="788.79" type="priority"/>
    <node id="5719351559" x="7721.41" y="2119.80" type="priority"/>
    <node id="5719363488" x="7803.07" y="628.73" type="priority"/>
    <node id="5719363491" x="7539.32" y="811.30" type="priority"/>
    <node id="5719363493" x="7656.32" y="690.73" type="priority"/>
    <node id="6190015241" x="9197.48" y="569.03" type="priority"/>
    <node id="6477768026" x="8856.07" y="1389.06" type="priority"/>
    <node id="6477768029" x="8650.59" y="1390.02" type="priority"/>
    <node id="6477768033" x="8578.11" y="1441.40" type="priority"/>
    <node id="6477768053" x="8470.15" y="1295.73" type="priority"/>
    <node id="6477768055" x="8413.65" y="1206.43" type="priority"/>
    <node id="7482991940" x="12706.30" y="1088.25" type="priority"/>
    <node id="7485023504" x="12258.28" y="1933.20" type="priority"/>
    <node id="7485023541" x="13453.90" y="1702.15" type="priority"/>
    <node id="7603584662" x="8070.78" y="1182.26" type="priority"/>
    <node id="7603584666" x="8119.63" y="1157.82" type="right_before_left"/>
    <node id="7603584671" x="8139.97" y="1201.79" type="priority"/>
    <node id="7603647994" x="8035.66" y="1147.48" type="priority"/>
    <node id="7603647998" x="8106.36" y="1130.35" type="right_before_left"/>
    <node id="834463211" x="8476.07" y="623.69" type="priority"/>
    <node id="834464132" x="8261.70" y="359.68" type="priority"/>
    <node id="834464591" x="8802.07" y="3813.03" type="dead_end"/>
    <node id="9156957750" x="8114.97" y="1672.28" type="priority"/>
    <node id="9156957752" x="8153.19" y="1529.23" type="priority"/>
    <node id="9156957753" x="7893.85" y="1552.66" type="priority"/>
    <node id="9156957754" x="7918.29" y="1524.27" type="priority"/>
    <node id="9156957759" x="7772.15" y="1624.61" type="priority"/>
    <node id="9156957761" x="7834.35" y="1337.64" type="priority"/>
    <node id="9156957765" x="8134.78" y="1302.20" type="priority"/>
    <node id="9156957767" x="8088.51" y="1214.09" type="priority"/>
    <node id="9156957769" x="8083.04" y="1344.78" type="priority"/>
    <node id="9156957774" x="8290.24" y="1370.38" type="priority"/>
    <node id="9156957775" x="8350.77" y="1339.90" type="priority"/>
    <node id="9156957776" x="8458.51" y="1275.89" type="priority"/>
    <node id="9156957778" x="8501.30" y="1270.36" type="priority"/>
    <node id="9156957780" x="8599.75" y="1292.18" type="priority"/>
    <node id="9156957781" x="8240.67" y="1271.35" type="priority"/>
    <node id="9156957782" x="8309.35" y="1231.40" type="priority"/>
    <node id="9156957787" x="8372.76" y="1372.41" type="priority"/>
    <node id="9156957792" x="8265.45" y="1319.06" type="priority"/>
    <node id="9156957794" x="8175.83" y="1179.99" type="priority"/>
    <node id="9156957795" x="8334.68" y="1280.20" type="priority"/>
    <node id="9156957802" x="8431.65" y="1233.63" type="priority"/>
    <node id="9156957806" x="8641.52" y="1197.97" type="priority"/>
    <node id="9156957807" x="8739.84" y="1187.85" type="priority"/>
    <node id="9156957810" x="8854.00" y="1194.37" type="priority"/>
    <node id="9156957811" x="8821.00" y="1088.50" type="priority"/>
    <node id="9156957816" x="8606.89" y="1143.83" type="priority"/>
    <node id="9156960212" x="9483.37" y="396.14" type="priority"/>
    <node id="9156960216" x="9513.84" y="500.91" type="priority"/>
    <node id="9156964018" x="9594.63" y="479.94" type="priority"/>
    <node id="9156964019" x="9517.21" y="523.73" type="priority"/>
    <node id="9156964025" x="9647.94" y="622.16" type="priority"/>
    <node id="9156964028" x="9389.17" y="689.72" type="priority"/>
    <node id="9156964029" x="9391.82" y="735.91" type="priority"/>
    <node id="9156964032" x="9347.07" y="749.13" type="priority"/>
    <node id="9156964034" x="9343.84" y="694.25" type="priority"/>
    <node id="9156964036" x="9270.34" y="698.09" type="priority"/>
    <node id="9156964038" x="9466.18" y="678.54" type="priority"/>
    <node id="9156964041" x="9525.36" y="790.27" type="priority"/>
    <node id="9156964043" x="9470.18" y="724.73" type="priority"/>
    <node id="9156964044" x="9477.58" y="796.17" type="priority"/>
    <node id="9156964049" x="9274.27" y="759.47" type="priority"/>
    <node id="9156964055" x="9459.63" y="959.50" type="priority"/>
    <node id="9156964057" x="9445.57" y="858.41" type="priority"/>
    <node id="9156964065" x="9536.26" y="992.88" type="priority"/>
    <node id="9156964068" x="9604.19" y="1034.22" type="priority"/>
    <node id="9156964071" x="9551.54" y="1123.76" type="priority"/>
    <node id="9156964072" x="9427.58" y="1144.90" type="priority"/>
    <node id="9156964074" x="9434.85" y="1187.25" type="priority"/>
    <node id="9156964076" x="9441.59" y="1234.77" type="priority"/>
    <node id="9156964077" x="9520.04" y="1173.33" type="priority"/>
    <node id="9156964081" x="9495.84" y="1132.67" type="priority"/>
    <node id="9156964082" x="9528.98" y="1221.10" type="priority"/>
    <node id="9156964084" x="9425.01" y="1341.79" type="priority"/>
    <node id="9156964099" x="9097.94" y="1475.96" type="priority"/>
    <node id="9156964103" x="9214.77" y="1222.24" type="priority"/>
    <node id="9156964108" x="9007.92" y="1217.53" type="priority"/>
    <node id="9156964116" x="9310.90" y="1073.10" type="priority"/>
    <node id="9156964118" x="9366.60" y="1062.56" type="priority"/>
    <node id="9156964119" x="9301.74" y="957.41" type="priority"/>
    <node id="9156964120" x="9399.96" y="943.98" type="priority"/>
    <node id="9156964122" x="9371.38" y="891.94" type="priority"/>
    <node id="9156964123" x="9218.74" y="844.18" type="priority"/>
    <node id="9156964125" x="9226.62" y="903.82" type="priority"/>
    <node id="9156964126" x="9219.17" y="818.65" type="priority"/>
    <node id="9156964130" x="9135.42" y="917.86" type="priority"/>
    <node id="9156964131" x="9156.74" y="1055.86" type="priority"/>
    <node id="9156964132" x="9385.18" y="1480.84" type="priority"/>
    <node id="9156964133" x="9491.42" y="1412.50" type="priority"/>
    <node id="9156964135" x="9515.34" y="1448.81" type="priority"/>
    <node id="9156964139" x="9354.35" y="1560.82" type="priority"/>
    <node id="9156968689" x="9529.79" y="1722.58" type="priority"/>
    <node id="9156968690" x="9382.18" y="1618.85" type="priority"/>
    <node id="9156968707" x="9369.87" y="2024.76" type="priority"/>
    <node id="9156968709" x="9218.72" y="2111.75" type="priority"/>
    <node id="9156968710" x="9373.59" y="1624.72" type="priority"/>
    <node id="9156968712" x="9281.06" y="1680.64" type="priority"/>
    <node id="9156968716" x="9383.62" y="1362.92" type="priority"/>
    <node id="9156969721" x="9074.00" y="1343.93" type="priority"/>
    <node id="9156969722" x="9069.25" y="1318.01" type="priority"/>
    <node id="9156969725" x="8994.02" y="1352.55" type="priority"/>
    <node id="9156969728" x="8992.66" y="1284.64" type="priority"/>
    <node id="9156969730" x="8915.71" y="1448.44" type="priority"/>
    <node id="9156969733" x="9151.93" y="2046.27" type="priority"/>
    <node id="9156969743" x="8884.61" y="1753.53" type="priority"/>
    <node id="9156969753" x="8679.89" y="1660.82" type="priority"/>
    <node id="9156969757" x="8736.02" y="1615.44" type="priority"/>
    <node id="9156969759" x="8862.65" y="1577.83" type="priority"/>
    <node id="9156969762" x="8698.60" y="1535.70" type="priority"/>
    <node id="9156969765" x="8642.42" y="1558.20" type="priority"/>
    <node id="9156969774" x="9237.55" y="2140.88" type="priority"/>
    <node id="9156969777" x="9266.58" y="2177.30" type="priority"/>
    <node id="9156969780" x="9253.44" y="2160.66" type="priority"/>
    <node id="9156969782" x="9189.70" y="2200.96" type="priority"/>
    <node id="9156969785" x="9976.58" y="1794.98" type="priority"/>
    <node id="9156969802" x="9605.67" y="2378.07" type="priority"/>
    <node id="9156969813" x="9237.65" y="2456.00" type="priority"/>
    <node id="9156969818" x="8639.98" y="2192.29" type="priority"/>
    <node id="9156969824" x="8953.45" y="2082.52" type="priority"/>
    <node id="9156969825" x="8872.41" y="2175.48" type="priority"/>
    <node id="9156969832" x="8940.05" y="2482.30" type="priority"/>
    <node id="9156969836" x="8272.72" y="2713.73" type="priority"/>
    <node id="9156969839" x="8372.25" y="2613.94" type="priority"/>
    <node id="9156969840" x="8437.87" y="2613.36" type="priority"/>
    <node id="9156969844" x="8711.82" y="2527.23" type="priority"/>
    <node id="9156969849" x="8852.67" y="2496.24" type="priority"/>
    <node id="9156969850" x="8892.41" y="2491.86" type="priority"/>
    <node id="9156969859" x="8755.43" y="2232.04" type="priority"/>
    <node id="9156969861" x="8742.75" y="2201.25" type="priority"/>
    <node id="9156969863" x="8893.38" y="2159.22" type="priority"/>
    <node id="9156969865" x="8868.88" y="2385.47" type="priority"/>
    <node id="9156969868" x="8261.53" y="2110.14" type="priority"/>
    <node id="9156969870" x="8366.08" y="2154.27" type="priority"/>
    <node id="9156969883" x="7904.34" y="2822.79" type="priority"/>
    <node id="9156969885" x="7888.04" y="2327.36" type="priority"/>
    <node id="9156969888" x="7849.58" y="2271.54" type="priority"/>
    <node id="9156969898" x="7683.97" y="2658.52" type="priority"/>
    <node id="9156969917" x="7681.09" y="2354.82" type="priority"/>
    <node id="9156969918" x="7717.09" y="2340.00" type="priority"/>
    <node id="9156969919" x="7793.11" y="2358.17" type="priority"/>
    <node id="9156969920" x="7296.72" y="2783.56" type="priority"/>
    <node id="9156969922" x="7376.47" y="2734.54" type="priority"/>
    <node id="9156969924" x="7376.94" y="2959.35" type="priority"/>
    <node id="9156969926" x="7313.33" y="2853.03" type="priority"/>
    <node id="9156969927" x="7278.59" y="2871.25" type="priority"/>
    <node id="9156969928" x="7246.97" y="2789.72" type="priority"/>
    <node id="9156969930" x="7255.42" y="3040.39" type="priority"/>
    <node id="9156969934" x="8023.04" y="2048.09" type="priority"/>
    <node id="9156969938" x="7948.30" y="1942.04" type="priority"/>