<?xml version="1.0" encoding="UTF-8"?>

<!-- generated on 2026-01-12T12:33:35.633198+05:30 by Eclipse SUMO netconvert 1.25.0
<netconvertConfiguration xmlns:xsi="http://www.w3.org/2001/XMLSchema-instance" xsi:noNamespaceSchemaLocation="http://sumo.dlr.de/xsd/netconvertConfiguration.xsd">

    <input>
        <sumo-net-file value="iit_ism_tls.net.xml"/>
    </input>

    <output>
        <plain-output-prefix value="check"/>
    </output>

    <processing>
        <geometry.min-radius.fix.railways value="false"/>
        <geometry.avoid-overlap value="false"/>
        <geometry.max-grade.fix value="false"/>
        <offset.disable-normalization value="true"/>
        <lefthand value="0"/>
    </processing>

    <junctions>
        <no-turnarounds value="true"/>
        <junctions.corner-detail value="5"/>
        <junctions.limit-turn-speed value="5.50"/>
        <rectangular-lane-cut value="0"/>
    </junctions>

    <pedestrian>
        <walkingareas value="0"/>
    </pedestrian>

</netconvertConfiguration>
-->

<connections version="1.20" xmlns:xsi="http://www.w3.org/2001/XMLSchema-instance" xsi:noNamespaceSchemaLocation="http://sumo.dlr.de/xsd/connections_file.xsd">
    <connection from="-1010357934#0" to="1010357934#0" fromLane="0" toLane="0"/>

    <connection from="-1010357934#1" to="-1010357934#0" fromLane="0" toLane="0"/>
    <connection from="-1010357934#1" to="1030293097#0" fromLane="0" toLane="0"/>
    <connection from="-1010357934#1" to="1010357934#1" fromLane="0" toLane="0"/>

    <connection from="-1010357934#10" to="1030311722" fromLane="0" toLane="0"/>
    <connection from="-1010357934#10" to="-1010357934#9" fromLane="0" toLane="0"/>
    <connection from="-1010357934#10" to="1010357934#10" fromLane="0" toLane="0"/>

    <connection from="-1010357934#11" to="1030311721" fromLane="0" toLane="0"/>
    <connection from="-1010357934#11" to="-1010357934#10" fromLane="0" toLane="0"/>
    <connection from="-1010357934#11" to="1010357934#11" fromLane="0" toLane="0"/>

    <connection from="-1010357934#3" to="1030317655" fromLane="0" toLane="0"/>
    <connection from="-1010357934#3" to="-1010357934#1" fromLane="0" toLane="0"/>
    <connection from="-1010357934#3" to="-1030295901" fromLane="0" toLane="0"/>
    <connection from="-1010357934#3" to="1010357934#3" fromLane="0" toLane="0"/>

    <connection from="-1010357934#4" to="-1010357934#3" fromLane="0" toLane="0"/>
    <connection from="-1010357934#4" to="-1030293097#2" fromLane="0" toLane="0"/>
    <connection from="-1010357934#4" to="1010357934#4" fromLane="0" toLane="0"/>

    <connection from="-1010357934#5" to="1030317652#0" fromLane="0" toLane="0"/>
    <connection from="-1010357934#5" to="-1010357934#4" fromLane="0" toLane="0"/>
    <connection from="-1010357934#5" to="1010357934#5" fromLane="0" toLane="0"/>

    <connection from="-1010357934#6" to="1030310876#0" fromLane="0" toLane="0"/>
    <connection from="-1010357934#6" to="-1010357934#5" fromLane="0" toLane="0"/>
    <connection from="-1010357934#6" to="-1030293099#3" fromLane="0" toLane="0"/>
    <connection from="-1010357934#6" to="1010357934#6" fromLane="0" toLane="0"/>

    <connection from="-1010357934#7" to="1030311715#0" fromLane="0" toLane="0"/>
    <connection from="-1010357934#7" to="-1010357934#6" fromLane="0" toLane="0"/>
    <connection from="-1010357934#7" to="1010357934#7" fromLane="0" toLane="0"/>

    <connection from="-1010357934#8" to="-1010357934#7" fromLane="0" toLane="0"/>
    <connection from="-1010357934#8" to="-1030295096" fromLane="0" toLane="0"/>
    <connection from="-1010357934#8" to="1010357934#8" fromLane="0" toLane="0"/>

    <connection from="-1010357934#9" to="-1010357934#8" fromLane="0" toLane="0"/>
    <connection from="-1010357934#9" to="-1030295095" fromLane="0" toLane="0"/>
    <connection from="-1010357934#9" to="1010357934#9" fromLane="0" toLane="0"/>

    <connection from="-1010357938#0" to="991056589#8" fromLane="0" toLane="0"/>
    <connection from="-1010357938#0" to="-991056589#7" fromLane="0" toLane="0"/>
    <connection from="-1010357938#0" to="1010357938#0" fromLane="0" toLane="0"/>

    <connection from="-1010357938#1" to="-1010357938#0" fromLane="0" toLane="0"/>
    <connection from="-1010357938#1" to="1030316066" fromLane="0" toLane="0"/>
    <connection from="-1010357938#1" to="1010357938#1" fromLane="0" toLane="0"/>

    <connection from="-1010357938#2" to="-1010357938#1" fromLane="0" toLane="0"/>
    <connection from="-1010357938#2" to="1030320490" fromLane="0" toLane="0"/>
    <connection from="-1010357938#2" to="1010357938#2" fromLane="0" toLane="0"/>

    <connection from="-1010357938#3" to="-1010357938#2" fromLane="0" toLane="0"/>
    <connection from="-1010357938#3" to="1030312509#1" fromLane="0" toLane="0"/>
    <connection from="-1010357938#3" to="-1030320489" fromLane="0" toLane="0"/>
    <connection from="-1010357938#3" to="1010357938#3" fromLane="0" toLane="0"/>

    <connection from="-1010357938#4" to="-1030312998" fromLane="0" toLane="0"/>
    <connection from="-1010357938#4" to="-1010357938#3" fromLane="0" toLane="0"/>

    <connection from="-1010357938#5" to="-1010357938#4" fromLane="0" toLane="0"/>
    <connection from="-1010357938#5" to="-1030312997" fromLane="0" toLane="0"/>
    <connection from="-1010357938#5" to="1010357938#5" fromLane="0" toLane="0"/>

    <connection from="-1010357938#6" to="-1010357938#5" fromLane="0" toLane="0"/>
    <connection from="-1010357938#6" to="1030312997" fromLane="0" toLane="0"/>
    <connection from="-1010357938#6" to="1010357938#6" fromLane="0" toLane="0"/>

    <connection from="-1010357938#7" to="-1010357938#6" fromLane="0" toLane="0"/>
    <connection from="-1010357938#7" to="1030316068" fromLane="0" toLane="0"/>
    <connection from="-1010357938#7" to="1010357938#7" fromLane="0" toLane="0"/>

    <connection from="-1010357938#8" to="-1010357938#7" fromLane="0" toLane="0"/>
    <connection from="-1010357938#8" to="1030320487" fromLane="0" toLane="0"/>
    <connection from="-1010357938#8" to="1010357938#8" fromLane="0" toLane="0"/>

    <connection from="-1010357938#9" to="-1010357938#8" fromLane="0" toLane="0"/>
    <connection from="-1010357938#9" to="1030316739" fromLane="0" toLane="0"/>
    <connection from="-1010357938#9" to="1010357938#9" fromLane="0" toLane="0"/>

    <connection from="-1010357939#1" to="544878386#20" fromLane="0" toLane="0"/>
    <connection from="-1010357939#1" to="544878399#1" fromLane="0" toLane="0"/>
    <connection from="-1010357939#1" to="1010357939#1" fromLane="0" toLane="0"/>

    <connection from="-1010357939#2" to="-1010357939#1" fromLane="0" toLane="0"/>
    <connection from="-1010357939#2" to="-1030314873#1" fromLane="0" toLane="0"/>
    <connection from="-1010357939#2" to="1010357939#2" fromLane="0" toLane="0"/>

    <connection from="-1010357939#3" to="-1010357939#2" fromLane="0" toLane="0"/>
    <connection from="-1010357939#3" to="-1030314867#2" fromLane="0" toLane="0"/>
    <connection from="-1010357939#3" to="1010357939#3" fromLane="0" toLane="0"/>

    <connection from="-1010357939#4" to="-1010357939#3" fromLane="0" toLane="0"/>
    <connection from="-1010357939#4" to="-1030315504#1" fromLane="0" toLane="0"/>
    <connection from="-1010357939#4" to="1010357939#4" fromLane="0" toLane="0"/>

    <connection from="-1010357939#5" to="-1010357939#4" fromLane="0" toLane="0"/>
    <connection from="-1010357939#5" to="-1030314092" fromLane="0" toLane="0"/>
    <connection from="-1010357939#5" to="1010357939#5" fromLane="0" toLane="0"/>

    <connection from="-1010357939#6" to="-1010357939#5" fromLane="0" toLane="0"/>
    <connection from="-1010357939#6" to="-1029513560" fromLane="0" toLane="0"/>
    <connection from="-1010357939#6" to="1010357939#6" fromLane="0" toLane="0"/>

    <connection from="-1010357939#7" to="-1029298259" fromLane="0" toLane="0"/>
    <connection from="-1010357939#7" to="-1010357939#6" fromLane="0" toLane="0"/>
    <connection from="-1010357939#7" to="1010357939#7" fromLane="0" toLane="0"/>

    <connection from="-1010357939#8" to="-1010357939#7" fromLane="0" toLane="0"/>
    <connection from="-1010357939#8" to="-1029295337#7" fromLane="0" toLane="0"/>
    <connection from="-1010357939#8" to="1010357939#8" fromLane="0" toLane="0"/>

    <connection from="-1010357939#9" to="-1010357939#8" fromLane="0" toLane="0"/>
    <connection from="-1010357939#9" to="1029292661" fromLane="0" toLane="0"/>
    <connection from="-1010357939#9" to="1010357939#9" fromLane="0" toLane="0"/>

    <connection from="-1010357948#0" to="991056582" fromLane="0" toLane="0"/>
    <connection from="-1010357948#0" to="991056583" fromLane="0" toLane="0"/>
    <connection from="-1010357948#0" to="1010357948#0" fromLane="0" toLane="0"/>

    <connection from="-1010357948#1" to="-1010357948#0" fromLane="0" toLane="0"/>
    <connection from="-1010357948#1" to="991056584" fromLane="0" toLane="0"/>
    <connection from="-1010357948#1" to="1010357948#1" fromLane="0" toLane="0"/>

    <connection from="-1010357948#2" to="991056581#0" fromLane="0" toLane="0"/>
    <connection from="-1010357948#2" to="-1010357948#1" fromLane="0" toLane="0"/>
    <connection from="-1010357948#2" to="1010357948#2" fromLane="0" toLane="0"/>

    <connection from="-1010357948#3" to="-1031896970#1" fromLane="0" toLane="0"/>
    <connection from="-1010357948#3" to="-1010357948#2" fromLane="0" toLane="0"/>
    <connection from="-1010357948#3" to="1010357948#3" fromLane="0" toLane="0"/>

    <connection from="-1010357948#4" to="991056579" fromLane="0" toLane="0"/>
    <connection from="-1010357948#4" to="-1010357948#3" fromLane="0" toLane="0"/>
    <connection from="-1010357948#4" to="1010357948#4" fromLane="0" toLane="0"/>

    <connection from="-1010963507#0" to="517026190#2" fromLane="0" toLane="0"/>
    <connection from="-1010963507#0" to="-517026190#1" fromLane="0" toLane="0"/>
    <connection from="-1010963507#0" to="1010963507#0" fromLane="0" toLane="0"/>

    <connection from="-1010963507#1" to="-1010963507#0" fromLane="0" toLane="0"/>
    <connection from="-1010963507#1" to="1010963508#0" fromLane="0" toLane="0"/>
    <connection from="-1010963507#1" to="1010963507#1" fromLane="0" toLane="0"/>

    <connection from="-1010963508#0" to="1010963507#1" fromLane="0" toLane="0"/>
    <connection from="-1010963508#0" to="-1010963507#0" fromLane="0" toLane="0"/>
    <connection from="-1010963508#0" to="1010963508#0" fromLane="0" toLane="0"/>

    <connection from="-1010963508#1" to="-1010963508#0" fromLane="0" toLane="0"/>
    <connection from="-1010963508#1" to="1031064866" fromLane="0" toLane="0"/>
    <connection from="-1010963508#1" to="1010963508#1" fromLane="0" toLane="0"/>

    <connection from="-1010963509" to="517026190#5" fromLane="0" toLane="0"/>
    <connection from="-1010963509" to="-517026190#4" fromLane="0" toLane="0"/>
    <connection from="-1010963509" to="1010963509" fromLane="0" toLane="0"/>

    <connection from="-1010963510" to="517026190#6" fromLane="0" toLane="0"/>
    <connection from="-1010963510" to="-517026190#5" fromLane="0" toLane="0"/>
    <connection from="-1010963510" to="1010963510" fromLane="0" toLane="0"/>

    <connection from="-1028936842" to="991059448#1" fromLane="0" toLane="0"/>
    <connection from="-1028936842" to="-991059448#0" fromLane="0" toLane="0"/>
    <connection from="-1028936842" to="1028936842" fromLane="0" toLane="0"/>

    <connection from="-1028940588" to="544878399#17" fromLane="0" toLane="0"/>
    <connection from="-1028940588" to="1028940588" fromLane="0" toLane="0"/>

    <connection from="-1028941365#0" to="1394488468#2" fromLane="0" toLane="0"/>
    <connection from="-1028941365#0" to="-1031062368" fromLane="0" toLane="0" disallow="pedestrian bicycle tram rail_urban rail rail_electric rail_fast ship container cable_car subway aircraft wheelchair scooter drone"/>
    <connection from="-1028941365#0" to="-1394488468#0" fromLane="0" toLane="1"/>
    <connection from="-1028941365#0" to="1028941365#0" fromLane="0" toLane="0"/>

    <connection from="-1028941365#1" to="-1031063133#1" fromLane="0" toLane="0"/>
    <connection from="-1028941365#1" to="-1028941365#0" fromLane="0" toLane="0"/>
    <connection from="-1028941365#1" to="1028941365#1" fromLane="0" toLane="0"/>

    <connection from="-1028941365#10" to="-1029289330" fromLane="0" toLane="0"/>
    <connection from="-1028941365#10" to="-1028941365#9" fromLane="0" toLane="0"/>
    <connection from="-1028941365#10" to="1028941365#10" fromLane="0" toLane="0"/>

    <connection from="-1028941365#11" to="-1029289329" fromLane="0" toLane="0"/>
    <connection from="-1028941365#11" to="-1028941365#10" fromLane="0" toLane="0"/>
    <connection from="-1028941365#11" to="1029515809" fromLane="0" toLane="0"/>
    <connection from="-1028941365#11" to="1028941365#11" fromLane="0" toLane="0"/>

    <connection from="-1028941365#12" to="-1028941365#11" fromLane="0" toLane="0"/>
    <connection from="-1028941365#12" to="1030299412#0" fromLane="0" toLane="0"/>
    <connection from="-1028941365#12" to="1028941365#12" fromLane="0" toLane="0"/>

    <connection from="-1028941365#13" to="-1029289326#23" fromLane="0" toLane="0"/>
    <connection from="-1028941365#13" to="-1028941365#12" fromLane="0" toLane="0"/>
    <connection from="-1028941365#13" to="1028941365#13" fromLane="0" toLane="0"/>

    <connection from="-1028941365#15" to="-1029515475#1" fromLane="0" toLane="0"/>
    <connection from="-1028941365#15" to="-1028941365#13" fromLane="0" toLane="0"/>
    <connection from="-1028941365#15" to="1029185340" fromLane="0" toLane="0"/>
    <connection from="-1028941365#15" to="1028941365#15" fromLane="0" toLane="0"/>

    <connection from="-1028941365#16" to="-1028941365#15" fromLane="0" toLane="0"/>
    <connection from="-1028941365#16" to="1029185336#0" fromLane="0" toLane="0"/>
    <connection from="-1028941365#16" to="1028941365#16" fromLane="0" toLane="0"/>

    <connection from="-1028941365#17" to="-1029231047" fromLane="0" toLane="0"/>
    <connection from="-1028941365#17" to="-1028941365#16" fromLane="0" toLane="0"/>
    <connection from="-1028941365#17" to="1028941365#17" fromLane="0" toLane="0"/>

    <connection from="-1028941365#18" to="-1028945814" fromLane="0" toLane="0"/>
    <connection from="-1028941365#18" to="-1028941365#17" fromLane="0" toLane="0"/>
    <connection from="-1028941365#18" to="1028941365#18" fromLane="0" toLane="0"/>

    <connection from="-1028941365#3" to="1031063134" fromLane="0" toLane="0"/>
    <connection from="-1028941365#3" to="-1028941365#1" fromLane="0" toLane="0"/>
    <connection from="-1028941365#3" to="-1031057027#2" fromLane="0" toLane="0"/>
    <connection from="-1028941365#3" to="1028941365#3" fromLane="0" toLane="0"/>

    <connection from="-1028941365#4" to="-1031057465" fromLane="0" toLane="0"/>
    <connection from="-1028941365#4" to="-1028941365#3" fromLane="0" toLane="0"/>
    <connection from="-1028941365#4" to="1028941365#4" fromLane="0" toLane="0"/>

    <connection from="-1028941365#5" to="-1031057466" fromLane="0" toLane="0"/>
    <connection from="-1028941365#5" to="-1028941365#4" fromLane="0" toLane="0"/>
    <connection from="-1028941365#5" to="1028941365#5" fromLane="0" toLane="0"/>

    <connection from="-1028941365#6" to="-1031057467#2" fromLane="0" toLane="0"/>
    <connection from="-1028941365#6" to="-1028941365#5" fromLane="0" toLane="0"/>
    <connection from="-1028941365#6" to="1028941365#6" fromLane="0" toLane="0"/>

    <connection from="-1028941365#7" to="-1031068974" fromLane="0" toLane="0"/>
    <connection from="-1028941365#7" to="-1028941365#6" fromLane="0" toLane="0"/>
    <connection from="-1028941365#7" to="1028941365#7" fromLane="0" toLane="0"/>

    <connection from="-1028941365#8" to="-1028941365#7" fromLane="0" toLane="0"/>
    <connection from="-1028941365#8" to="-1031056771#6" fromLane="0" toLane="0"/>
    <connection from="-1028941365#8" to="1028941365#8" fromLane="0" toLane="0"/>

    <connection from="-1028941365#9" to="-1029288141#6" fromLane="0" toLane="0"/>
    <connection from="-1028941365#9" to="-1028941365#8" fromLane="0" toLane="0"/>
    <connection from="-1028941365#9" to="1028941365#9" fromLane="0" toLane="0"/>

    <connection from="-1028945804#0" to="-1029185336#0" fromLane="0" toLane="0"/>
    <connection from="-1028945804#0" to="1029185336#1" fromLane="0" toLane="0"/>
    <connection from="-1028945804#0" to="1028945804#0" fromLane="0" toLane="0"/>

    <connection from="-1028945804#1" to="-1029186117" fromLane="0" toLane="0"/>
    <connection from="-1028945804#1" to="-1028945804#0" fromLane="0" toLane="0"/>
    <connection from="-1028945804#1" to="1028945804#1" fromLane="0" toLane="0"/>

    <connection from="-1028945804#2" to="-1028945804#1" fromLane="0" toLane="0"/>
    <connection from="-1028945804#2" to="-1028945810" fromLane="0" toLane="0"/>
    <connection from="-1028945804#2" to="1028945804#2" fromLane="0" toLane="0"/>

    <connection from="-1028945804#3" to="-1029186118" fromLane="0" toLane="0"/>
    <connection from="-1028945804#3" to="-1029186119#0" fromLane="0" toLane="0"/>
    <connection from="-1028945804#3" to="-1028945804#2" fromLane="0" toLane="0"/>
    <connection from="-1028945804#3" to="1028945804#3" fromLane="0" toLane="0"/>

    <connection from="-1028945804#4" to="-1028945804#3" fromLane="0" toLane="0"/>
    <connection from="-1028945804#4" to="1028945810" fromLane="0" toLane="0"/>
    <connection from="-1028945804#4" to="1028945804#4" fromLane="0" toLane="0"/>

    <connection from="-1028945804#6" to="1028945808#0" fromLane="0" toLane="0"/>
    <connection from="-1028945804#6" to="-1028945804#4" fromLane="0" toLane="0"/>
    <connection from="-1028945804#6" to="1028945812" fromLane="0" toLane="0"/>
    <connection from="-1028945804#6" to="1028945804#6" fromLane="0" toLane="0"/>

    <connection from="-1028945808#0" to="-1028945804#4" fromLane="0" toLane="0"/>
    <connection from="-1028945808#0" to="1028945812" fromLane="0" toLane="0"/>
    <connection from="-1028945808#0" to="1028945804#6" fromLane="0" toLane="0"/>
    <connection from="-1028945808#0" to="1028945808#0" fromLane="0" toLane="0"/>

    <connection from="-1028945808#1" to="-1029183716" fromLane="0" toLane="0"/>
    <connection from="-1028945808#1" to="-1028945808#0" fromLane="0" toLane="0"/>
    <connection from="-1028945808#1" to="1028945808#1" fromLane="0" toLane="0"/>

    <connection from="-1028945810" to="1028945804#4" fromLane="0" toLane="0"/>
    <connection from="-1028945810" to="-1028945804#3" fromLane="0" toLane="0"/>
    <connection from="-1028945810" to="1028945810" fromLane="0" toLane="0"/>

    <connection from="-1028945812" to="1028945804#6" fromLane="0" toLane="0"/>
    <connection from="-1028945812" to="1028945808#0" fromLane="0" toLane="0"/>
    <connection from="-1028945812" to="-1028945804#4" fromLane="0" toLane="0"/>
    <connection from="-1028945812" to="1028945812" fromLane="0" toLane="0"/>

    <connection from="-1028945813#0" to="1028945813#0" fromLane="0" toLane="0"/>

    <connection from="-1028945813#2" to="1029290707#2" fromLane="0" toLane="0"/>
    <connection from="-1028945813#2" to="-1028945813#0" fromLane="0" toLane="0"/>
    <connection from="-1028945813#2" to="-1029290707#1" fromLane="0" toLane="0"/>
    <connection from="-1028945813#2" to="1029515476" fromLane="0" toLane="0"/>
    <connection from="-1028945813#2" to="1028945813#2" fromLane="0" toLane="0"/>

    <connection from="-1028945813#3" to="-1029290707#3" fromLane="0" toLane="0"/>
    <connection from="-1028945813#3" to="-1028945813#2" fromLane="0" toLane="0"/>
    <connection from="-1028945813#3" to="1028945813#3" fromLane="0" toLane="0"/>

    <connection from="-1028945813#4" to="-1029290171#6" fromLane="0" toLane="0"/>
    <connection from="-1028945813#4" to="-1028945813#3" fromLane="0" toLane="0"/>
    <connection from="-1028945813#4" to="1028945813#4" fromLane="0" toLane="0"/>

    <connection from="-1028945813#5" to="-1028945813#4" fromLane="0" toLane="0"/>
    <connection from="-1028945813#5" to="1028945814" fromLane="0" toLane="0"/>
    <connection from="-1028945813#5" to="1028945813#5" fromLane="0" toLane="0"/>

    <connection from="-1028945814" to="1028945813#5" fromLane="0" toLane="0"/>
    <connection from="-1028945814" to="-1028945813#4" fromLane="0" toLane="0"/>
    <connection from="-1028945814" to="1028945814" fromLane="0" toLane="0"/>

    <connection from="-1029183675#0" to="1029183675#0" fromLane="0" toLane="0"/>

    <connection from="-1029183675#1" to="-1029183675#0" fromLane="0" toLane="0"/>
    <connection from="-1029183675#1" to="1029222137" fromLane="0" toLane="0"/>
    <connection from="-1029183675#1" to="1029183675#1" fromLane="0" toLane="0"/>

    <connection from="-1029183675#2" to="-1029183675#1" fromLane="0" toLane="0"/>
    <connection from="-1029183675#2" to="-1029225432" fromLane="0" toLane="0"/>
    <connection from="-1029183675#2" to="1029183675#2" fromLane="0" toLane="0"/>

    <connection from="-1029183715#0" to="1029183715#0" fromLane="0" toLane="0"/>

    <connection from="-1029183715#1" to="-1029183715#0" fromLane="0" toLane="0"/>
    <connection from="-1029183715#1" to="-1029225431" fromLane="0" toLane="0"/>
    <connection from="-1029183715#1" to="1029183715#1" fromLane="0" toLane="0"/>

    <connection from="-1029183716" to="1029183716" fromLane="0" toLane="0"/>

    <connection from="-1029185336#0" to="1028941365#16" fromLane="0" toLane="0"/>
    <connection from="-1029185336#0" to="-1028941365#15" fromLane="0" toLane="0"/>
    <connection from="-1029185336#0" to="1029185336#0" fromLane="0" toLane="0"/>

    <connection from="-1029185336#1" to="1028945804#0" fromLane="0" toLane="0"/>
    <connection from="-1029185336#1" to="-1029185336#0" fromLane="0" toLane="0"/>
    <connection from="-1029185336#1" to="1029185336#1" fromLane="0" toLane="0"/>

    <connection from="-1029185337#0" to="1394488469#7" fromLane="0" toLane="1"/>
    <connection from="-1029185337#0" to="1029185337#0" fromLane="0" toLane="0"/>

    <connection from="-1029185337#1" to="-1029185337#0" fromLane="0" toLane="0"/>
    <connection from="-1029185337#1" to="-1029185736" fromLane="0" toLane="0"/>
    <connection from="-1029185337#1" to="1029185337#1" fromLane="0" toLane="0"/>

    <connection from="-1029185337#2" to="1030299408#0" fromLane="0" toLane="0"/>
    <connection from="-1029185337#2" to="-1029185337#1" fromLane="0" toLane="0"/>
    <connection from="-1029185337#2" to="1029185337#2" fromLane="0" toLane="0"/>

    <connection from="-1029185337#3" to="-1029185337#2" fromLane="0" toLane="0"/>
    <connection from="-1029185337#3" to="-1029185339" fromLane="0" toLane="0"/>
    <connection from="-1029185337#3" to="1029185337#3" fromLane="0" toLane="0"/>

    <connection from="-1029185337#4" to="1029185733#0" fromLane="0" toLane="0"/>
    <connection from="-1029185337#4" to="-1029185337#3" fromLane="0" toLane="0"/>
    <connection from="-1029185337#4" to="1029185337#4" fromLane="0" toLane="0"/>

    <connection from="-1029185337#5" to="-1029185337#4" fromLane="0" toLane="0"/>
    <connection from="-1029185337#5" to="1029185338" fromLane="0" toLane="0"/>
    <connection from="-1029185337#5" to="1029185337#5" fromLane="0" toLane="0"/>

    <connection from="-1029185338" to="1029185337#5" fromLane="0" toLane="0"/>
    <connection from="-1029185338" to="-1029185337#4" fromLane="0" toLane="0"/>
    <connection from="-1029185338" to="1029185338" fromLane="0" toLane="0"/>

    <connection from="-1029185339" to="-1029185337#5" fromLane="0" toLane="0"/>
    <connection from="-1029185339" to="-1029185338" fromLane="0" toLane="0"/>
    <connection from="-1029185339" to="1029185339" fromLane="0" toLane="0"/>

    <connection from="-1029185340" to="1028941365#15" fromLane="0" toLane="0"/>
    <connection from="-1029185340" to="-1029515475#1" fromLane="0" toLane="0"/>
    <connection from="-1029185340" to="-1028941365#13" fromLane="0" toLane="0"/>
    <connection from="-1029185340" to="1029185340" fromLane="0" toLane="0"/>

    <connection from="-1029185342" to="1029185342" fromLane="0" toLane="0"/>

    <connection from="-1029185343#0" to="-1030299412#1" fromLane="0" toLane="0"/>
    <connection from="-1029185343#0" to="1030299412#2" fromLane="0" toLane="0"/>
    <connection from="-1029185343#0" to="1029185343#0" fromLane="0" toLane="0"/>

    <connection from="-1029185343#2" to="-1029185344" fromLane="0" toLane="0"/>
    <connection from="-1029185343#2" to="-1029185343#0" fromLane="0" toLane="0"/>
    <connection from="-1029185343#2" to="1029185732" fromLane="0" toLane="0"/>
    <connection from="-1029185343#2" to="1029185343#2" fromLane="0" toLane="0"/>

    <connection from="-1029185344" to="1029185344" fromLane="0" toLane="0"/>

    <connection from="-1029185732" to="1029185343#2" fromLane="0" toLane="0"/>
    <connection from="-1029185732" to="-1029185344" fromLane="0" toLane="0"/>
    <connection from="-1029185732" to="-1029185343#0" fromLane="0" toLane="0"/>
    <connection from="-1029185732" to="1029185732" fromLane="0" toLane="0"/>

    <connection from="-1029185733#0" to="-1029185337#3" fromLane="0" toLane="0"/>
    <connection from="-1029185733#0" to="1029185337#4" fromLane="0" toLane="0"/>
    <connection from="-1029185733#0" to="1029185733#0" fromLane="0" toLane="0"/>

    <connection from="-1029185733#2" to="1030299410" fromLane="0" toLane="0"/>
    <connection from="-1029185733#2" to="-1029185733#0" fromLane="0" toLane="0"/>
    <connection from="-1029185733#2" to="-1029185734#1" fromLane="0" toLane="0"/>
    <connection from="-1029185733#2" to="1029185733#2" fromLane="0" toLane="0"/>

    <connection from="-1029185733#4" to="1030299411" fromLane="0" toLane="0"/>
    <connection from="-1029185733#4" to="-1029185733#2" fromLane="0" toLane="0"/>
    <connection from="-1029185733#4" to="-1030299412#2" fromLane="0" toLane="0"/>
    <connection from="-1029185733#4" to="1029185733#4" fromLane="0" toLane="0"/>

    <connection from="-1029185734#0" to="1029185734#0" fromLane="0" toLane="0"/>

    <connection from="-1029185734#1" to="-1029185734#0" fromLane="0" toLane="0"/>
    <connection from="-1029185734#1" to="-1029185735" fromLane="0" toLane="0"/>
    <connection from="-1029185734#1" to="1029185734#1" fromLane="0" toLane="0"/>

    <connection from="-1029185735" to="1029185735" fromLane="0" toLane="0"/>

    <connection from="-1029185736" to="1029185736" fromLane="0" toLane="0"/>

    <connection from="-1029185737" to="1029185737" fromLane="0" toLane="0"/>

    <connection from="-1029186117" to="1029186117" fromLane="0" toLane="0"/>

    <connection from="-1029186118" to="1029186118" fromLane="0" toLane="0"/>

    <connection from="-1029186119#0" to="1029186119#0" fromLane="0" toLane="0"/>

    <connection from="-1029222137" to="1029183675#1" fromLane="0" toLane="0"/>
    <connection from="-1029222137" to="-1029183675#0" fromLane="0" toLane="0"/>
    <connection from="-1029222137" to="1029222137" fromLane="0" toLane="0"/>

    <connection from="-1029225431" to="1029225431" fromLane="0" toLane="0"/>

    <connection from="-1029225432" to="1029225432" fromLane="0" toLane="0"/>

    <connection from="-1029225433" to="-1298028889#1" fromLane="0" toLane="0"/>
    <connection from="-1029225433" to="1298028886" fromLane="0" toLane="0"/>
    <connection from="-1029225433" to="1029225433" fromLane="0" toLane="0"/>

    <connection from="-1029231047" to="1029231047" fromLane="0" toLane="0"/>

    <connection from="-1029286475#1" to="-1298027073#0" fromLane="0" toLane="0"/>
    <connection from="-1029286475#1" to="1298027073#1" fromLane="0" toLane="0"/>
    <connection from="-1029286475#1" to="1029286480" fromLane="0" toLane="0"/>
    <connection from="-1029286475#1" to="1029286475#1" fromLane="0" toLane="0"/>

    <connection from="-1029286475#2" to="-1029286475#1" fromLane="0" toLane="0"/>
    <connection from="-1029286475#2" to="1029286479#0" fromLane="0" toLane="0"/>
    <connection from="-1029286475#2" to="1029286475#2" fromLane="0" toLane="0"/>

    <connection from="-1029286475#3" to="-1029286475#2" fromLane="0" toLane="0"/>
    <connection from="-1029286475#3" to="1029286478" fromLane="0" toLane="0"/>
    <connection from="-1029286475#3" to="1029286475#3" fromLane="0" toLane="0"/>

    <connection from="-1029286478" to="1029286475#3" fromLane="0" toLane="0"/>
    <connection from="-1029286478" to="-1029286475#2" fromLane="0" toLane="0"/>
    <connection from="-1029286478" to="1029286478" fromLane="0" toLane="0"/>

    <connection from="-1029286479#0" to="1029286475#2" fromLane="0" toLane="0"/>
    <connection from="-1029286479#0" to="-1029286475#1" fromLane="0" toLane="0"/>
    <connection from="-1029286479#0" to="1029286479#0" fromLane="0" toLane="0"/>

    <connection from="-1029286479#1" to="-1029286478" fromLane="0" toLane="0"/>
    <connection from="-1029286479#1" to="-1029286479#0" fromLane="0" toLane="0"/>
    <connection from="-1029286479#1" to="1029286479#1" fromLane="0" toLane="0"/>

    <connection from="-1029286480" to="1029286475#1" fromLane="0" toLane="0"/>
    <connection from="-1029286480" to="-1298027073#0" fromLane="0" toLane="0"/>
    <connection from="-1029286480" to="1298027073#1" fromLane="0" toLane="0"/>
    <connection from="-1029286480" to="1029286480" fromLane="0" toLane="0"/>

    <connection from="-1029287546#0" to="-1298028884#0" fromLane="0" toLane="0"/>
    <connection from="-1029287546#0" to="1298028884#1" fromLane="0" toLane="0"/>
    <connection from="-1029287546#0" to="1029287546#0" fromLane="0" toLane="0"/>

    <connection from="-1029287546#1" to="1029290170" fromLane="0" toLane="0"/>
    <connection from="-1029287546#1" to="-1029287546#0" fromLane="0" toLane="0"/>
    <connection from="-1029287546#1" to="1029287546#1" fromLane="0" toLane="0"/>

    <connection from="-1029287546#12" to="1029288140#0" fromLane="0" toLane="0"/>