<?xml version="1.0" encoding="UTF-8"?>

<!-- generated on 2026-01-11T02:03:18.741849+05:30 by Eclipse SUMO netconvert 1.25.0
<netconvertConfiguration xmlns:xsi="http://www.w3.org/2001/XMLSchema-instance" xsi:noNamespaceSchemaLocation="http://sumo.dlr.de/xsd/netconvertConfiguration.xsd">

    <input>
        <node-files value="cube.nod.xml"/>
        <edge-files value="cube.edg.xml"/>
    </input>

    <output>
        <output-file value="cube.net.xml"/>
    </output>

</netconvertConfiguration>
-->

<net version="1.20" junctionCornerDetail="5" limitTurnSpeed="5.50" xmlns:xsi="http://www.w3.org/2001/XMLSchema-instance" xsi:noNamespaceSchemaLocation="http://sumo.dlr.de/xsd/net_file.xsd">

    <location netOffset="0.00,0.00" convBoundary="0.00,0.00,2000.00,2000.00" origBoundary="0.00,0.00,2000.00,2000.00" projParameter="!"/>

    <edge id=":n00_0" function="internal">
        <lane id=":n00_0_0" index="0" speed="11.12" length="28.38" shape="-8.00,9.60 -6.90,1.90 -3.60,-3.60 1.90,-6.90 9.60,-8.00"/>
        <lane id=":n00_0_1" index="1" speed="10.10" length="23.22" shape="-4.80,9.60 -3.90,3.30 -1.20,-1.20 3.30,-3.90 9.60,-4.80"/>
        <lane id=":n00_0_2" index="2" speed="8.96" length="18.06" shape="-1.60,9.60 -0.90,4.70 1.20,1.20 4.70,-0.90 9.60,-1.60"/>
    </edge>
    <edge id=":n00_3" function="internal">
        <lane id=":n00_3_0" index="0" speed="3.90" length="2.58" shape="9.60,8.00 8.90,8.10 8.40,8.40 8.10,8.90 8.00,9.60"/>
        <lane id=":n00_3_1" index="1" speed="6.08" length="7.74" shape="9.60,4.80 7.50,5.10 6.00,6.00 5.10,7.50 4.80,9.60"/>
        <lane id=":n00_3_2" index="2" speed="7.66" length="12.90" shape="9.60,1.60 6.10,2.10 3.60,3.60 2.10,6.10 1.60,9.60"/>
    </edge>
    <edge id=":n01_0" function="internal">
        <lane id=":n01_0_0" index="0" speed="6.51" length="9.03" shape="492.00,13.60 491.65,11.15 490.60,9.40 488.85,8.35 486.40,8.00"/>
        <lane id=":n01_0_1" index="1" speed="8.00" length="14.19" shape="495.20,13.60 494.65,9.75 493.00,7.00 490.25,5.35 486.40,4.80"/>
    </edge>
    <edge id=":n01_2" function="internal">
        <lane id=":n01_2_0" index="0" speed="10.88" length="27.14" shape="498.40,13.60 499.35,5.55 502.20,-0.20 506.95,-3.65 513.60,-4.80"/>
        <lane id=":n01_2_1" index="1" speed="10.36" length="24.51" shape="498.40,13.60 499.35,6.95 502.20,2.20 506.95,-0.65 513.60,-1.60"/>
    </edge>
    <edge id=":n01_4" function="internal">
        <lane id=":n01_4_0" index="0" speed="3.65" length="2.34" shape="498.40,13.60 499.20,12.40 500.00,12.00"/>
    </edge>
    <edge id=":n01_16" function="internal">
        <lane id=":n01_16_0" index="0" speed="3.65" length="2.34" shape="500.00,12.00 500.80,12.40 501.60,13.60"/>
    </edge>
    <edge id=":n01_5" function="internal">
        <lane id=":n01_5_0" index="0" speed="6.51" length="9.03" shape="513.60,8.00 511.15,8.35 509.40,9.40 508.35,11.15 508.00,13.60"/>
    </edge>
    <edge id=":n01_6" function="internal">
        <lane id=":n01_6_0" index="0" speed="15.00" length="27.20" shape="513.60,8.00 486.40,8.00"/>
        <lane id=":n01_6_1" index="1" speed="15.00" length="27.20" shape="513.60,4.80 486.40,4.80"/>
        <lane id=":n01_6_2" index="2" speed="15.00" length="27.20" shape="513.60,1.60 486.40,1.60"/>
    </edge>
    <edge id=":n01_9" function="internal">
        <lane id=":n01_9_0" index="0" speed="3.65" length="1.44" shape="513.60,1.60 512.40,0.80"/>
    </edge>
    <edge id=":n01_17" function="internal">
        <lane id=":n01_17_0" index="0" speed="3.65" length="3.23" shape="512.40,0.80 512.00,0.00 512.40,-0.80 513.60,-1.60"/>
    </edge>
    <edge id=":n01_10" function="internal">
        <lane id=":n01_10_0" index="0" speed="15.00" length="27.20" shape="486.40,-8.00 513.60,-8.00"/>
        <lane id=":n01_10_1" index="1" speed="15.00" length="27.20" shape="486.40,-4.80 513.60,-4.80"/>
        <lane id=":n01_10_2" index="2" speed="15.00" length="27.20" shape="486.40,-1.60 513.60,-1.60"/>
    </edge>
    <edge id=":n01_13" function="internal">
        <lane id=":n01_13_0" index="0" speed="10.88" length="6.03" shape="486.40,-1.60 492.38,-0.89"/>
        <lane id=":n01_13_1" index="1" speed="10.36" length="5.01" shape="486.40,-1.60 491.36,-0.89"/>
    </edge>
    <edge id=":n01_15" function="internal">
        <lane id=":n01_15_0" index="0" speed="3.65" length="1.44" shape="486.40,-1.60 487.60,-0.80"/>
    </edge>
    <edge id=":n01_18" function="internal">
        <lane id=":n01_18_0" index="0" speed="10.88" length="21.12" shape="492.38,-0.89 494.45,-0.65 500.20,2.20 503.65,6.95 504.80,13.60"/>
        <lane id=":n01_18_1" index="0" speed="10.36" length="19.50" shape="491.36,-0.89 493.05,-0.65 497.80,2.20 500.65,6.95 501.60,13.60"/>
    </edge>
    <edge id=":n01_19" function="internal">
        <lane id=":n01_19_0" index="0" speed="3.65" length="3.23" shape="487.60,-0.80 488.00,0.00 487.60,0.80 486.40,1.60"/>
    </edge>
    <edge id=":n02_0" function="internal">
        <lane id=":n02_0_0" index="0" speed="6.51" length="9.03" shape="992.00,13.60 991.65,11.15 990.60,9.40 988.85,8.35 986.40,8.00"/>
        <lane id=":n02_0_1" index="1" speed="8.00" length="14.19" shape="995.20,13.60 994.65,9.75 993.00,7.00 990.25,5.35 986.40,4.80"/>
    </edge>
    <edge id=":n02_2" function="internal">
        <lane id=":n02_2_0" index="0" speed="10.88" length="27.14" shape="998.40,13.60 999.35,5.55 1002.20,-0.20 1006.95,-3.65 1013.60,-4.80"/>
        <lane id=":n02_2_1" index="1" speed="10.36" length="24.51" shape="998.40,13.60 999.35,6.95 1002.20,2.20 1006.95,-0.65 1013.60,-1.60"/>
    </edge>
    <edge id=":n02_4" function="internal">
        <lane id=":n02_4_0" index="0" speed="3.65" length="2.34" shape="998.40,13.60 999.20,12.40 1000.00,12.00"/>
    </edge>
    <edge id=":n02_16" function="internal">
        <lane id=":n02_16_0" index="0" speed="3.65" length="2.34" shape="1000.00,12.00 1000.80,12.40 1001.60,13.60"/>
    </edge>
    <edge id=":n02_5" function="internal">
        <lane id=":n02_5_0" index="0" speed="6.51" length="9.03" shape="1013.60,8.00 1011.15,8.35 1009.40,9.40 1008.35,11.15 1008.00,13.60"/>
    </edge>
    <edge id=":n02_6" function="internal">
        <lane id=":n02_6_0" index="0" speed="15.00" length="27.20" shape="1013.60,8.00 986.40,8.00"/>
        <lane id=":n02_6_1" index="1" speed="15.00" length="27.20" shape="1013.60,4.80 986.40,4.80"/>
        <lane id=":n02_6_2" index="2" speed="15.00" length="27.20" shape="1013.60,1.60 986.40,1.60"/>
    </edge>
    <edge id=":n02_9" function="internal">
        <lane id=":n02_9_0" index="0" speed="3.65" length="1.44" shape="1013.60,1.60 1012.40,0.80"/>
    </edge>
    <edge id=":n02_17" function="internal">
        <lane id=":n02_17_0" index="0" speed="3.65" length="3.23" shape="1012.40,0.80 1012.00,0.00 1012.40,-0.80 1013.60,-1.60"/>
    </edge>
    <edge id=":n02_10" function="internal">
        <lane id=":n02_10_0" index="0" speed="15.00" length="27.20" shape="986.40,-8.00 1013.60,-8.00"/>
        <lane id=":n02_10_1" index="1" speed="15.00" length="27.20" shape="986.40,-4.80 1013.60,-4.80"/>
        <lane id=":n02_10_2" index="2" speed="15.00" length="27.20" shape="986.40,-1.60 1013.60,-1.60"/>
    </edge>
    <edge id=":n02_13" function="internal">
        <lane id=":n02_13_0" index="0" speed="10.88" length="6.03" shape="986.40,-1.60 992.38,-0.89"/>
        <lane id=":n02_13_1" index="1" speed="10.36" length="5.01" shape="986.40,-1.60 991.36,-0.89"/>
    </edge>
    <edge id=":n02_15" function="internal">
        <lane id=":n02_15_0" index="0" speed="3.65" length="1.44" shape="986.40,-1.60 987.60,-0.80"/>
    </edge>
    <edge id=":n02_18" function="internal">
        <lane id=":n02_18_0" index="0" speed="10.88" length="21.12" shape="992.38,-0.89 994.45,-0.65 1000.20,2.20 1003.65,6.95 1004.80,13.60"/>
        <lane id=":n02_18_1" index="0" speed="10.36" length="19.50" shape="991.36,-0.89 993.05,-0.65 997.80,2.20 1000.65,6.95 1001.60,13.60"/>
    </edge>
    <edge id=":n02_19" function="internal">
        <lane id=":n02_19_0" index="0" speed="3.65" length="3.23" shape="987.60,-0.80 988.00,0.00 987.60,0.80 986.40,1.60"/>
    </edge>
    <edge id=":n03_0" function="internal">
        <lane id=":n03_0_0" index="0" speed="6.51" length="9.03" shape="1492.00,13.60 1491.65,11.15 1490.60,9.40 1488.85,8.35 1486.40,8.00"/>
        <lane id=":n03_0_1" index="1" speed="8.00" length="14.19" shape="1495.20,13.60 1494.65,9.75 1493.00,7.00 1490.25,5.35 1486.40,4.80"/>
    </edge>
    <edge id=":n03_2" function="internal">
        <lane id=":n03_2_0" index="0" speed="10.88" length="27.14" shape="1498.40,13.60 1499.35,5.55 1502.20,-0.20 1506.95,-3.65 1513.60,-4.80"/>
        <lane id=":n03_2_1" index="1" speed="10.36" length="24.51" shape="1498.40,13.60 1499.35,6.95 1502.20,2.20 1506.95,-0.65 1513.60,-1.60"/>
    </edge>
    <edge id=":n03_4" function="internal">
        <lane id=":n03_4_0" index="0" speed="3.65" length="2.34" shape="1498.40,13.60 1499.20,12.40 1500.00,12.00"/>
    </edge>
    <edge id=":n03_16" function="internal">
        <lane id=":n03_16_0" index="0" speed="3.65" length="2.34" shape="1500.00,12.00 1500.80,12.40 1501.60,13.60"/>
    </edge>
    <edge id=":n03_5" function="internal">
        <lane id=":n03_5_0" index="0" speed="6.51" length="9.03" shape="1513.60,8.00 1511.15,8.35 1509.40,9.40 1508.35,11.15 1508.00,13.60"/>
    </edge>
    <edge id=":n03_6" function="internal">
        <lane id=":n03_6_0" index="0" speed="15.00" length="27.20" shape="1513.60,8.00 1486.40,8.00"/>
        <lane id=":n03_6_1" index="1" speed="15.00" length="27.20" shape="1513.60,4.80 1486.40,4.80"/>
        <lane id=":n03_6_2" index="2" speed="15.00" length="27.20" shape="1513.60,1.60 1486.40,1.60"/>
    </edge>
    <edge id=":n03_9" function="internal">
        <lane id=":n03_9_0" index="0" speed="3.65" length="1.44" shape="1513.60,1.60 1512.40,0.80"/>
    </edge>
    <edge id=":n03_17" function="internal">
        <lane id=":n03_17_0" index="0" speed="3.65" length="3.23" shape="1512.40,0.80 1512.00,0.00 1512.40,-0.80 1513.60,-1.60"/>
    </edge>
    <edge id=":n03_10" function="internal">
        <lane id=":n03_10_0" index="0" speed="15.00" length="27.20" shape="1486.40,-8.00 1513.60,-8.00"/>
        <lane id=":n03_10_1" index="1" speed="15.00" length="27.20" shape="1486.40,-4.80 1513.60,-4.80"/>
        <lane id=":n03_10_2" index="2" speed="15.00" length="27.20" shape="1486.40,-1.60 1513.60,-1.60"/>
    </edge>
    <edge id=":n03_13" function="internal">
        <lane id=":n03_13_0" index="0" speed="10.88" length="6.03" shape="1486.40,-1.60 1492.38,-0.89"/>
        <lane id=":n03_13_1" index="1" speed="10.36" length="5.01" shape="1486.40,-1.60 1491.36,-0.89"/>
    </edge>
    <edge id=":n03_15" function="internal">
        <lane id=":n03_15_0" index="0" speed="3.65" length="1.44" shape="1486.40,-1.60 1487.60,-0.80"/>
    </edge>
    <edge id=":n03_18" function="internal">
        <lane id=":n03_18_0" index="0" speed="10.88" length="21.12" shape="1492.38,-0.89 1494.45,-0.65 1500.20,2.20 1503.65,6.95 1504.80,13.60"/>
        <lane id=":n03_18_1" index="0" speed="10.36" length="19.50" shape="1491.36,-0.89 1493.05,-0.65 1497.80,2.20 1500.65,6.95 1501.60,13.60"/>
    </edge>
    <edge id=":n03_19" function="internal">
        <lane id=":n03_19_0" index="0" speed="3.65" length="3.23" shape="1487.60,-0.80 1488.00,0.00 1487.60,0.80 1486.40,1.60"/>
    </edge>
    <edge id=":n04_0" function="internal">
        <lane id=":n04_0_0" index="0" speed="3.90" length="2.58" shape="1992.00,9.60 1991.90,8.90 1991.60,8.40 1991.10,8.10 1990.40,8.00"/>
        <lane id=":n04_0_1" index="1" speed="6.08" length="7.74" shape="1995.20,9.60 1994.90,7.50 1994.00,6.00 1992.50,5.10 1990.40,4.80"/>
        <lane id=":n04_0_2" index="2" speed="7.66" length="12.90" shape="1998.40,9.60 1997.90,6.10 1996.40,3.60 1993.90,2.10 1990.40,1.60"/>
    </edge>
    <edge id=":n04_3" function="internal">
        <lane id=":n04_3_0" index="0" speed="11.12" length="28.38" shape="1990.40,-8.00 1998.10,-6.90 2003.60,-3.60 2006.90,1.90 2008.00,9.60"/>
        <lane id=":n04_3_1" index="1" speed="10.10" length="23.22" shape="1990.40,-4.80 1996.70,-3.90 2001.20,-1.20 2003.90,3.30 2004.80,9.60"/>
        <lane id=":n04_3_2" index="2" speed="8.96" length="18.06" shape="1990.40,-1.60 1995.30,-0.90 1998.80,1.20 2000.90,4.70 2001.60,9.60"/>
    </edge>
    <edge id=":n10_0" function="internal">
        <lane id=":n10_0_0" index="0" speed="15.00" length="27.20" shape="-8.00,513.60 -8.00,486.40"/>
        <lane id=":n10_0_1" index="1" speed="15.00" length="27.20" shape="-4.80,513.60 -4.80,486.40"/>
        <lane id=":n10_0_2" index="2" speed="15.00" length="27.20" shape="-1.60,513.60 -1.60,486.40"/>
    </edge>
    <edge id=":n10_3" function="internal">
        <lane id=":n10_3_0" index="0" speed="10.88" length="6.03" shape="-1.60,513.60 -0.89,507.62"/>
        <lane id=":n10_3_1" index="1" speed="10.36" length="5.01" shape="-1.60,513.60 -0.89,508.64"/>
    </edge>
    <edge id=":n10_5" function="internal">
        <lane id=":n10_5_0" index="0" speed="3.65" length="1.44" shape="-1.60,513.60 -0.80,512.40"/>
    </edge>
    <edge id=":n10_16" function="internal">
        <lane id=":n10_16_0" index="0" speed="10.88" length="21.12" shape="-0.89,507.62 -0.65,505.55 2.20,499.80 6.95,496.35 13.60,495.20"/>
        <lane id=":n10_16_1" index="0" speed="10.36" length="19.50" shape="-0.89,508.64 -0.65,506.95 2.20,502.20 6.95,499.35 13.60,498.40"/>
    </edge>
    <edge id=":n10_17" function="internal">
        <lane id=":n10_17_0" index="0" speed="3.65" length="3.23" shape="-0.80,512.40 0.00,512.00 0.80,512.40 1.60,513.60"/>
    </edge>
    <edge id=":n10_6" function="internal">
        <lane id=":n10_6_0" index="0" speed="6.51" length="9.03" shape="13.60,508.00 11.15,508.35 9.40,509.40 8.35,511.15 8.00,513.60"/>
        <lane id=":n10_6_1" index="1" speed="8.00" length="14.19" shape="13.60,504.80 9.75,505.35 7.00,507.00 5.35,509.75 4.80,513.60"/>
    </edge>
    <edge id=":n10_8" function="internal">
        <lane id=":n10_8_0" index="0" speed="10.88" length="27.14" shape="13.60,501.60 5.55,500.65 -0.20,497.80 -3.65,493.05 -4.80,486.40"/>
        <lane id=":n10_8_1" index="1" speed="10.36" length="24.51" shape="13.60,501.60 6.95,500.65 2.20,497.80 -0.65,493.05 -1.60,486.40"/>
    </edge>
    <edge id=":n10_10" function="internal">
        <lane id=":n10_10_0" index="0" speed="3.65" length="2.34" shape="13.60,501.60 12.40,500.80 12.00,500.00"/>
    </edge>
    <edge id=":n10_18" function="internal">
        <lane id=":n10_18_0" index="0" speed="3.65" length="2.34" shape="12.00,500.00 12.40,499.20 13.60,498.40"/>
    </edge>
    <edge id=":n10_11" function="internal">
        <lane id=":n10_11_0" index="0" speed="6.51" length="9.03" shape="8.00,486.40 8.35,488.85 9.40,490.60 11.15,491.65 13.60,492.00"/>
    </edge>
    <edge id=":n10_12" function="internal">
        <lane id=":n10_12_0" index="0" speed="15.00" length="27.20" shape="8.00,486.40 8.00,513.60"/>
        <lane id=":n10_12_1" index="1" speed="15.00" length="27.20" shape="4.80,486.40 4.80,513.60"/>
        <lane id=":n10_12_2" index="2" speed="15.00" length="27.20" shape="1.60,486.40 1.60,513.60"/>
    </edge>
    <edge id=":n10_15" function="internal">
        <lane id=":n10_15_0" index="0" speed="3.65" length="1.44" shape="1.60,486.40 0.80,487.60"/>
    </edge>
    <edge id=":n10_19" function="internal">
        <lane id=":n10_19_0" index="0" speed="3.65" length="3.23" shape="0.80,487.60 0.00,488.00 -0.80,487.60 -1.60,486.40"/>
    </edge>
    <edge id=":n11_0" function="internal">
        <lane id=":n11_0_0" index="0" speed="6.51" length="9.03" shape="492.00,513.60 491.65,511.15 490.60,509.40 488.85,508.35 486.40,508.00"/>
    </edge>
    <edge id=":n11_1" function="internal">
        <lane id=":n11_1_0" index="0" speed="15.00" length="27.20" shape="492.00,513.60 492.00,486.40"/>
        <lane id=":n11_1_1" index="1" speed="15.00" length="27.20" shape="495.20,513.60 495.20,486.40"/>
        <lane id=":n11_1_2" index="2" speed="15.00" length="27.20" shape="498.40,513.60 498.40,486.40"/>
    </edge>
    <edge id=":n11_4" function="internal">
        <lane id=":n11_4_0" index="0" speed="10.36" length="5.01" shape="498.40,513.60 499.11,508.64"/>
    </edge>
    <edge id=":n11_5" function="internal">
        <lane id=":n11_5_0" index="0" speed="3.65" length="1.44" shape="498.40,513.60 499.20,512.40"/>
    </edge>
    <edge id=":n11_24" function="internal">
        <lane id=":n11_24_0" index="0" speed="10.36" length="19.50" shape="499.11,508.64 499.35,506.95 502.20,502.20 506.95,499.35 513.60,498.40"/>
    </edge>
    <edge id=":n11_25" function="internal">
        <lane id=":n11_25_0" index="0" speed="3.65" length="3.23" shape="499.20,512.40 500.00,512.00 500.80,512.40 501.60,513.60"/>
    </edge>
    <edge id=":n11_6" function="internal">
        <lane id=":n11_6_0" index="0" speed="6.51" length="9.03" shape="513.60,508.00 511.15,508.35 509.40,509.40 508.35,511.15 508.00,513.60"/>
    </edge>
    <edge id=":n11_7" function="internal">
        <lane id=":n11_7_0" index="0" speed="15.00" length="27.20" shape="513.60,508.00 486.40,508.00"/>
        <lane id=":n11_7_1" index="1" speed="15.00" length="27.20" shape="513.60,504.80 486.40,504.80"/>
        <lane id=":n11_7_2" index="2" speed="15.00" length="27.20" shape="513.60,501.60 486.40,501.60"/>
    </edge>
    <edge id=":n11_10" function="internal">
        <lane id=":n11_10_0" index="0" speed="10.36" length="5.01" shape="513.60,501.60 508.64,500.89"/>
    </edge>
    <edge id=":n11_11" function="internal">
        <lane id=":n11_11_0" index="0" speed="3.65" length="1.44" shape="513.60,501.60 512.40,500.80"/>
    </edge>
    <edge id=":n11_26" function="internal">
        <lane id=":n11_26_0" index="0" speed="10.36" length="19.50" shape="508.64,500.89 506.95,500.65 502.20,497.80 499.35,493.05 498.40,486.40"/>
    </edge>
    <edge id=":n11_27" function="internal">
        <lane id=":n11_27_0" index="0" speed="3.65" length="3.23" shape="512.40,500.80 512.00,500.00 512.40,499.20 513.60,498.40"/>
    </edge>
    <edge id=":n11_12" function="internal">
        <lane id=":n11_12_0" index="0" speed="6.51" length="9.03" shape="508.00,486.40 508.35,488.85 509.40,490.60 511.15,491.65 513.60,492.00"/>
    </edge>
    <edge id=":n11_13" function="internal">
        <lane id=":n11_13_0" index="0" speed="15.00" length="27.20" shape="508.00,486.40 508.00,513.60"/>
        <lane id=":n11_13_1" index="1" speed="15.00" length="27.20" shape="504.80,486.40 504.80,513.60"/>
        <lane id=":n11_13_2" index="2" speed="15.00" length="27.20" shape="501.60,486.40 501.60,513.60"/>
    </edge>
    <edge id=":n11_16" function="internal">
        <lane id=":n11_16_0" index="0" speed="10.36" length="5.01" shape="501.60,486.40 500.89,491.36"/>
    </edge>
    <edge id=":n11_17" function="internal">
        <lane id=":n11_17_0" index="0" speed="3.65" length="1.44" shape="501.60,486.40 500.80,487.60"/>
    </edge>
    <edge id=":n11_28" function="internal">
        <lane id=":n11_28_0" index="0" speed="10.36" length="19.50" shape="500.89,491.36 500.65,493.05 497.80,497.80 493.05,500.65 486.40,501.60"/>
    </edge>
    <edge id=":n11_29" function="internal">
        <lane id=":n11_29_0" index="0" speed="3.65" length="3.23" shape="500.80,487.60 500.00,488.00 499.20,487.60 498.40,486.40"/>
    </edge>
    <edge id=":n11_18" function="internal">
        <lane id=":n11_18_0" index="0" speed="6.51" length="9.03" shape="486.40,492.00 488.85,491.65 490.60,490.60 491.65,488.85 492.00,486.40"/>
    </edge>
    <edge id=":n11_19" function="internal">
        <lane id=":n11_19_0" index="0" speed="15.00" length="27.20" shape="486.40,492.00 513.60,492.00"/>
        <lane id=":n11_19_1" index="1" speed="15.00" length="27.20" shape="486.40,495.20 513.60,495.20"/>
        <lane id=":n11_19_2" index="2" speed="15.00" length="27.20" shape="486.40,498.40 513.60,498.40"/>
    </edge>
    <edge id=":n11_22" function="internal">
        <lane id=":n11_22_0" index="0" speed="10.36" length="5.01" shape="486.40,498.40 491.36,499.11"/>
    </edge>
    <edge id=":n11_23" function="internal">
        <lane id=":n11_23_0" index="0" speed="3.65" length="1.44" shape="486.40,498.40 487.60,499.20"/>
    </edge>
    <edge id=":n11_30" function="internal">
        <lane id=":n11_30_0" index="0" speed="10.36" length="19.50" shape="491.36,499.11 493.05,499.35 497.80,502.20 500.65,506.95 501.60,513.60"/>
    </edge>
    <edge id=":n11_31" function="internal">
        <lane id=":n11_31_0" index="0" speed="3.65" length="3.23" shape="487.60,499.20 488.00,500.00 487.60,500.80 486.40,501.60"/>
    </edge>
    <edge id=":n12_0" function="internal">
        <lane id=":n12_0_0" index="0" speed="6.51" length="9.03" shape="992.00,513.60 991.65,511.15 990.60,509.40 988.85,508.35 986.40,508.00"/>
    </edge>
    <edge id=":n12_1" function="internal">
        <lane id=":n12_1_0" index="0" speed="15.00" length="27.20" shape="992.00,513.60 992.00,486.40"/>
        <lane id=":n12_1_1" index="1" speed="15.00" length="27.20" shape="995.20,513.60 995.20,486.40"/>
        <lane id=":n12_1_2" index="2" speed="15.00" length="27.20" shape="998.40,513.60 998.40,486.40"/>
    </edge>
    <edge id=":n12_4" function="internal">
        <lane id=":n12_4_0" index="0" speed="10.36" length="5.01" shape="998.40,513.60 999.11,508.64"/>
    </edge>
    <edge id=":n12_5" function="internal">
        <lane id=":n12_5_0" index="0" speed="3.65" length="1.44" shape="998.40,513.60 999.20,512.40"/>
    </edge>
    <edge id=":n12_24" function="internal">
        <lane id=":n12_24_0" index="0" speed="10.36" length="19.50" shape="999.11,508.64 999.35,506.95 1002.20,502.20 1006.95,499.35 1013.60,498.40"/>
    </edge>
    <edge id=":n12_25" function="internal">
        <lane id=":n12_25_0" index="0" speed="3.65" length="3.23" shape="999.20,512.40 1000.00,512.00 1000.80,512.40 1001.60,513.60"/>
    </edge>
    <edge id=":n12_6" function="internal">
        <lane id=":n12_6_0" index="0" speed="6.51" length="9.03" shape="1013.60,508.00 1011.15,508.35 1009.40,509.40 1008.35,511.15 1008.00,513.60"/>
    </edge>
    <edge id=":n12_7" function="internal">
        <lane id=":n12_7_0" index="0" speed="15.00" length="27.20" shape="1013.60,508.00 986.40,508.00"/>
        <lane id=":n12_7_1" index="1" speed="15.00" length="27.20" shape="1013.60,504.80 986.40,504.80"/>
        <lane id=":n12_7_2" index="2" speed="15.00" length="27.20" shape="1013.60,501.60 986.40,501.60"/>
    </edge>
    <edge id=":n12_10" function="internal">
        <lane id=":n12_10_0" index="0" speed="10.36" length="5.01" shape="1013.60,501.60 1008.64,500.89"/>
    </edge>
    <edge id=":n12_11" function="internal">
        <lane id=":n12_11_0" index="0" speed="3.65" length="1.44" shape="1013.60,501.60 1012.40,500.80"/>
    </edge>
    <edge id=":n12_26" function="internal">
        <lane id=":n12_26_0" index="0" speed="10.36" length="19.50" shape="1008.64,500.89 1006.95,500.65 1002.20,497.80 999.35,493.05 998.40,486.40"/>
    </edge>
    <edge id=":n12_27" function="internal">
        <lane id=":n12_27_0" index="0" speed="3.65" length="3.23" shape="1012.40,500.80 1012.00,500.00 1012.40,499.20 1013.60,498.40"/>
    </edge>
    <edge id=":n12_12" function="internal">
        <lane id=":n12_12_0" index="0" speed="6.51" length="9.03" shape="1008.00,486.40 1008.35,488.85 1009.40,490.60 1011.15,491.65 1013.60,492.00"/>
    </edge>
    <edge id=":n12_13" function="internal">
        <lane id=":n12_13_0" index="0" speed="15.00" length="27.20" shape="1008.00,486.40 1008.00,513.60"/>
        <lane id=":n12_13_1" index="1" speed="15.00" length="27.20" shape="1004.80,486.40 1004.80,513.60"/>
        <lane id=":n12_13_2" index="2" speed="15.00" length="27.20" shape="1001.60,486.40 1001.60,513.60"/>
    </edge>
    <edge id=":n12_16" function="internal">
        <lane id=":n12_16_0" index="0" speed="10.36" length="5.01" shape="1001.60,486.40 1000.89,491.36"/>
    </edge>
    <edge id=":n12_17" function="internal">
        <lane id=":n12_17_0" index="0" speed="3.65" length="1.44" shape="1001.60,486.40 1000.80,487.60"/>
    </edge>
    <edge id=":n12_28" function="internal">
        <lane id=":n12_28_0" index="0" speed="10.36" length="19.50" shape="1000.89,491.36 1000.65,493.05 997.80,497.80 993.05,500.65 986.40,501.60"/>
    </edge>
    <edge id=":n12_29" function="internal">
        <lane id=":n12_29_0" index="0" speed="3.65" length="3.23" shape="1000.80,487.60 1000.00,488.00 999.20,487.60 998.40,486.40"/>
    </edge>
    <edge id=":n12_18" function="internal">
        <lane id=":n12_18_0" index="0" speed="6.51" length="9.03" shape="986.40,492.00 988.85,491.65 990.60,490.60 991.65,488.85 992.00,486.40"/>
    </edge>
    <edge id=":n12_19" function="internal">
        <lane id=":n12_19_0" index="0" speed="15.00" length="27.20" shape="986.40,492.00 1013.60,492.00"/>
        <lane id=":n12_19_1" index="1" speed="15.00" length="27.20" shape="986.40,495.20 1013.60,495.20"/>
        <lane id=":n12_19_2" index="2" speed="15.00" length="27.20" shape="986.40,498.40 1013.60,498.40"/>
    </edge>
    <edge id=":n12_22" function="internal">
        <lane id=":n12_22_0" index="0" speed="10.36" length="5.01" shape="986.40,498.40 991.36,499.11"/>
    </edge>
    <edge id=":n12_23" function="internal">
        <lane id=":n12_23_0" index="0" speed="3.65" length="1.44" shape="986.40,498.40 987.60,499.20"/>
    </edge>
    <edge id=":n12_30" function="internal">
        <lane id=":n12_30_0" index="0" speed="10.36" length="19.50" shape="991.36,499.11 993.05,499.35 997.80,502.20 1000.65,506.95 1001.60,513.60"/>
    </edge>
    <edge id=":n12_31" function="internal">
        <lane id=":n12_31_0" index="0" speed="3.65" length="3.23" shape="987.60,499.20 988.00,500.00 987.60,500.80 986.40,501.60"/>
    </edge>
    <edge id=":n13_0" function="internal">
        <lane id=":n13_0_0" index="0" speed="6.51" length="9.03" shape="1492.00,513.60 1491.65,511.15 1490.60,509.40 1488.85,508.35 1486.40,508.00"/>
    </edge>
    <edge id=":n13_1" function="internal">
        <lane id=":n13_1_0" index="0" speed="15.00" length="27.20" shape="1492.00,513.60 1492.00,486.40"/>
        <lane id=":n13_1_1" index="1" speed="15.00" length="27.20" shape="1495.20,513.60 1495.20,486.40"/>
        <lane id=":n13_1_2" index="2" speed="15.00" length="27.20" shape="1498.40,513.60 1498.40,486.40"/>
    </edge>
    <edge id=":n13_4" function="internal">
        <lane id=":n13_4_0" index="0" speed="10.36" length="5.01" shape="1498.40,513.60 1499.11,508.64"/>
    </edge>
    <edge id=":n13_5" function="internal">
        <lane id=":n13_5_0" index="0" speed="3.65" length="1.44" shape="1498.40,513.60 1499.20,512.40"/>
    </edge>
    <edge id=":n13_24" function="internal">
        <lane id=":n13_24_0" index="0" speed="10.36" length="19.50" shape="1499.11,508.64 1499.35,506.95 1502.20,502.20 1506.95,499.35 1513.60,498.40"/>
    </edge>
    <edge id=":n13_25" function="internal">
        <lane id=":n13_25_0" index="0" speed="3.65" length="3.23" shape="1499.20,512.40 1500.00,512.00 1500.80,512.40 1501.60,513.60"/>
    </edge>
    <edge id=":n13_6" function="internal">
        <lane id=":n13_6_0" index="0" speed="6.51" length="9.03" shape="1513.60,508.00 1511.15,508.35 1509.40,509.40 1508.35,511.15 1508.00,513.60"/>
    </edge>
    <edge id=":n13_7" function="internal">
        <lane id=":n13_7_0" index="0" speed="15.00" length="27.20" shape="1513.60,508.00 1486.40,508.00"/>
        <lane id=":n13_7_1" index="1" speed="15.00" length="27.20" shape="1513.60,504.80 1486.40,504.80"/>
        <lane id=":n13_7_2" index="2" speed="15.00" length="27.20" shape="1513.60,501.60 1486.40,501.60"/>
    </edge>
    <edge id=":n13_10" function="internal">
        <lane id=":n13_10_0" index="0" speed="10.36" length="5.01" shape="1513.60,501.60 1508.64,500.89"/>
    </edge>
    <edge id=":n13_11" function="internal">
        <lane id=":n13_11_0" index="0" speed="3.65" length="1.44" shape="1513.60,501.60 1512.40,500.80"/>
    </edge>
    <edge id=":n13_26" function="internal">
        <lane id=":n13_26_0" index="0" speed="10.36" length="19.50" shape="1508.64,500.89 1506.95,500.65 1502.20,497.80 1499.35,493.05 1498.40,486.40"/>
    </edge>
    <edge id=":n13_27" function="internal">
        <lane id=":n13_27_0" index="0" speed="3.65" length="3.23" shape="1512.40,500.80 1512.00,500.00 1512.40,499.20 1513.60,498.40"/>
    </edge>
    <edge id=":n13_12" function="internal">
        <lane id=":n13_12_0" index="0" speed="6.51" length="9.03" shape="1508.00,486.40 1508.35,488.85 1509.40,490.60 1511.15,491.65 1513.60,492.00"/>
    </edge>
    <edge id=":n13_13" function="internal">
        <lane id=":n13_13_0" index="0" speed="15.00" length="27.20" shape="1508.00,486.40 1508.00,513.60"/>
        <lane id=":n13_13_1" index="1" speed="15.00" length="27.20" shape="1504.80,486.40 1504.80,513.60"/>
        <lane id=":n13_13_2" index="2" speed="15.00" length="27.20" shape="1501.60,486.40 1501.60,513.60"/>
    </edge>
    <edge id=":n13_16" function="internal">
        <lane id=":n13_16_0" index="0" speed="10.36" length="5.01" shape="1501.60,486.40 1500.89,491.36"/>
    </edge>
    <edge id=":n13_17" function="internal">
        <lane id=":n13_17_0" index="0" speed="3.65" length="1.44" shape="1501.60,486.40 1500.80,487.60"/>
    </edge>
    <edge id=":n13_28" function="internal">
        <lane id=":n13_28_0" index="0" speed="10.36" length="19.50" shape="1500.89,491.36 1500.65,493.05 1497.80,497.80 1493.05,500.65 1486.40,501.60"/>
    </edge>
    <edge id=":n13_29" function="internal">
        <lane id=":n13_29_0" index="0" speed="3.65" length="3.23" shape="1500.80,487.60 1500.00,488.00 1499.20,487.60 1498.40,486.40"/>
    </edge>
    <edge id=":n13_18" function="internal">