<edges>
    <!-- Horizontal roads (east/west) for 5x5 grid -->
    <!-- eastbound -->
    <edge id="n00_n01" from="n00" to="n01" numLanes="3" speed="15"/>
    <edge id="n01_n02" from="n01" to="n02" numLanes="3" speed="15"/>
    <edge id="n02_n03" from="n02" to="n03" numLanes="3" speed="15"/>
    <edge id="n03_n04" from="n03" to="n04" numLanes="3" speed="15"/>

    <edge id="n10_n11" from="n10" to="n11" numLanes="3" speed="15"/>
    <edge id="n11_n12" from="n11" to="n12" numLanes="3" speed="15"/>
    <edge id="n12_n13" from="n12" to="n13" numLanes="3" speed="15"/>
    <edge id="n13_n14" from="n13" to="n14" numLanes="3" speed="15"/>

    <edge id="n20_n21" from="n20" to="n21" numLanes="3" speed="15"/>
    <edge id="n21_n22" from="n21" to="n22" numLanes="3" speed="15"/>
    <edge id="n22_n23" from="n22" to="n23" numLanes="3" speed="15"/>
    <edge id="n23_n24" from="n23" to="n24" numLanes="3" speed="15"/>

    <edge id="n30_n31" from="n30" to="n31" numLanes="3" speed="15"/>
    <edge id="n31_n32" from="n31" to="n32" numLanes="3" speed="15"/>
    <edge id="n32_n33" from="n32" to="n33" numLanes="3" speed="15"/>
    <edge id="n33_n34" from="n33" to="n34" numLanes="3" speed="15"/>

    <edge id="n40_n41" from="n40" to="n41" numLanes="3" speed="15"/>
    <edge id="n41_n42" from="n41" to="n42" numLanes="3" speed="15"/>
    <edge id="n42_n43" from="n42" to="n43" numLanes="3" speed="15"/>
    <edge id="n43_n44" from="n43" to="n44" numLanes="3" speed="15"/>

    <!-- westbound -->
    <edge id="n01_n00" from="n01" to="n00" numLanes="3" speed="15"/>
    <edge id="n02_n01" from="n02" to="n01" numLanes="3" speed="15"/>
    <edge id="n03_n02" from="n03" to="n02" numLanes="3" speed="15"/>
    <edge id="n04_n03" from="n04" to="n03" numLanes="3" speed="15"/>

    <edge id="n11_n10" from="n11" to="n10" numLanes="3" speed="15"/>
    <edge id="n12_n11" from="n12" to="n11" numLanes="3" speed="15"/>
    <edge id="n13_n12" from="n13" to="n12" numLanes="3" speed="15"/>
    <edge id="n14_n13" from="n14" to="n13" numLanes="3" speed="15"/>

    <edge id="n21_n20" from="n21" to="n20" numLanes="3" speed="15"/>
    <edge id="n22_n21" from="n22" to="n21" numLanes="3" speed="15"/>
    <edge id="n23_n22" from="n23" to="n22" numLanes="3" speed="15"/>
    <edge id="n24_n23" from="n24" to="n23" numLanes="3" speed="15"/>

    <edge id="n31_n30" from="n31" to="n30" numLanes="3" speed="15"/>
    <edge id="n32_n31" from="n32" to="n31" numLanes="3" speed="15"/>
    <edge id="n33_n32" from="n33" to="n32" numLanes="3" speed="15"/>
    <edge id="n34_n33" from="n34" to="n33" numLanes="3" speed="15"/>

    <edge id="n41_n40" from="n41" to="n40" numLanes="3" speed="15"/>
    <edge id="n42_n41" from="n42" to="n41" numLanes="3" speed="15"/>
    <edge id="n43_n42" from="n43" to="n42" numLanes="3" speed="15"/>
    <edge id="n44_n43" from="n44" to="n43" numLanes="3" speed="15"/>

    <!-- Vertical roads (south/north) for 5x5 grid -->
    <!-- southbound -->
    <edge id="n00_n10" from="n00" to="n10" numLanes="3" speed="15"/>
    <edge id="n10_n20" from="n10" to="n20" numLanes="3" speed="15"/>
    <edge id="n20_n30" from="n20" to="n30" numLanes="3" speed="15"/>
    <edge id="n30_n40" from="n30" to="n40" numLanes="3" speed="15"/>

    <edge id="n01_n11" from="n01" to="n11" numLanes="3" speed="15"/>
    <edge id="n11_n21" from="n11" to="n21" numLanes="3" speed="15"/>
    <edge id="n21_n31" from="n21" to="n31" numLanes="3" speed="15"/>
    <edge id="n31_n41" from="n31" to="n41" numLanes="3" speed="15"/>

    <edge id="n02_n12" from="n02" to="n12" numLanes="3" speed="15"/>
    <edge id="n12_n22" from="n12" to="n22" numLanes="3" speed="15"/>
    <edge id="n22_n32" from="n22" to="n32" numLanes="3" speed="15"/>
    <edge id="n32_n42" from="n32" to="n42" numLanes="3" speed="15"/>

    <edge id="n03_n13" from="n03" to="n13" numLanes="3" speed="15"/>
    <edge id="n13_n23" from="n13" to="n23" numLanes="3" speed="15"/>
    <edge id="n23_n33" from="n23" to="n33" numLanes="3" speed="15"/>
    <edge id="n33_n43" from="n33" to="n43" numLanes="3" speed="15"/>

    <edge id="n04_n14" from="n04" to="n14" numLanes="3" speed="15"/>
    <edge id="n14_n24" from="n14" to="n24" numLanes="3" speed="15"/>
    <edge id="n24_n34" from="n24" to="n34" numLanes="3" speed="15"/>
    <edge id="n34_n44" from="n34" to="n44" numLanes="3" speed="15"/>

    <!-- northbound -->
    <edge id="n10_n00" from="n10" to="n00" numLanes="3" speed="15"/>
    <edge id="n20_n10" from="n20" to="n10" numLanes="3" speed="15"/>
    <edge id="n30_n20" from="n30" to="n20" numLanes="3" speed="15"/>
    <edge id="n40_n30" from="n40" to="n30" numLanes="3" speed="15"/>

    <edge id="n11_n01" from="n11" to="n01" numLanes="3" speed="15"/>
    <edge id="n21_n11" from="n21" to="n11" numLanes="3" speed="15"/>
    <edge id="n31_n21" from="n31" to="n21" numLanes="3" speed="15"/>
    <edge id="n41_n31" from="n41" to="n31" numLanes="3" speed="15"/>

    <edge id="n12_n02" from="n12" to="n02" numLanes="3" speed="15"/>
    <edge id="n22_n12" from="n22" to="n12" numLanes="3" speed="15"/>
    <edge id="n32_n22" from="n32" to="n22" numLanes="3" speed="15"/>
    <edge id="n42_n32" from="n42" to="n32" numLanes="3" speed="15"/>

    <edge id="n13_n03" from="n13" to="n03" numLanes="3" speed="15"/>
    <edge id="n23_n13" from="n23" to="n13" numLanes="3" speed="15"/>
    <edge id="n33_n23" from="n33" to="n23" numLanes="3" speed="15"/>
    <edge id="n43_n33" from="n43" to="n33" numLanes="3" speed="15"/>

    <edge id="n14_n04" from="n14" to="n04" numLanes="3" speed="15"/>
    <edge id="n24_n14" from="n24" to="n14" numLanes="3" speed="15"/>
    <edge id="n34_n24" from="n34" to="n24" numLanes="3" speed="15"/>
    <edge id="n44_n34" from="n44" to="n34" numLanes="3" speed="15"/>
</edges>
