<?xml version="1.0" encoding="UTF-8"?>

<!-- generated on 2026-01-12 12:35:51.475541 by Eclipse SUMO randomTrips.py v1_25_0+0000-ac6c5a6752d
<configuration>
    <net-file value="iit_ism_tls.net.xml"/>
    <output-trip-file value="trips.xml"/>
    <end value="1200.0"/>
    <period value="0.8"/>
</configuration>
-->

<!-- generated on 2026-01-12T12:35:46.156476+05:30 by Eclipse SUMO duarouter 1.25.0
<duarouterConfiguration xmlns:xsi="http://www.w3.org/2001/XMLSchema-instance" xsi:noNamespaceSchemaLocation="http://sumo.dlr.de/xsd/duarouterConfiguration.xsd">

    <input>
        <net-file value="iit_ism_tls.net.xml"/>
        <route-files value="trips.xml"/>
    </input>

    <output>
        <output-file value="routes.rou.xml"/>
        <alternatives-output value="NUL"/>
    </output>

    <time>
        <begin value="0"/>
        <end value="1200.0"/>
    </time>

    <report>
        <no-warnings value="true"/>
        <ignore-errors value="true"/>
        <no-step-log value="true"/>
    </report>

</duarouterConfiguration>
-->

<routes xmlns:xsi="http://www.w3.org/2001/XMLSchema-instance" xsi:noNamespaceSchemaLocation="http://sumo.dlr.de/xsd/routes_file.xsd">
    <vehicle id="0" depart="0.00">
        <route edges="1031056776 -1031056774#1 -1031056774#0 -1031056773#3 -1031056773#2 -1031056773#1 -1029515809 1028941365#11 1028941365#12 1028941365#13 1028941365#15 1029185336#0 1028945804#0 1028945804#1 1028945804#2 -1029186118"/>
    </vehicle>
    <vehicle id="1" depart="0.80">
        <route edges="-1031149135 -1031058625 -601900898#8 -601900898#7 -601900898#6 -601900898#5 -601900898#4 -601900898#3 -601900898#2 -601900898#1 -601900898#0 1232840997#13 1232840997#14 1232840996#0 1232840996#1 238849893#1 238849893#2 601940197#1 -575553578#1 -575553578#0 -517026179#13 -517026179#12 1031068032#0 -1031068031"/>
    </vehicle>
    <vehicle id="2" depart="1.60">
        <route edges="1031102311#2 1031083607#3 1031083607#4 1031083607#5 1031083607#6 528437024#16 -1031103835#2 -1031103835#1 -1031103835#0 -1031096107#0 1031063917#5 1031063917#6 1031063917#7 -1031065450#14 -1031065450#12 -1031065450#11 -1031065450#9 -1031065450#8 -1031065442#3 -1031065442#2 -1031065446 1031065446"/>
    </vehicle>
    <vehicle id="3" depart="2.40">
        <route edges="544904289 1427060322 1079935598#0 1079935598#1 991057347#1 544878424#5 544878396#0 544878396#1 544878388#3 544878386#0 544878386#1 544878386#2 544878386#3 544878386#4 544878386#6 544878386#7 544878386#8 544878386#9 544878386#11 544878386#12 544878386#14 544878386#15 544878386#16 544878386#18 544878386#19 1010357939#1 1010357939#2 1010357939#3 1010357939#4 1010357939#5 1010357939#6 1010357939#7 -1029295337#7 -1029295337#6 -1029295337#5 -1029514541"/>
    </vehicle>
    <vehicle id="4" depart="3.20">
        <route edges="-991055727 -601935214#1 -601935214#0 -601935216#7 -601935216#6 -601935216#5 -601935216#4 -601935216#3 -601935216#2 -601935216#1 -601935216#0 1232840997#5 1232840997#6 1232840997#7 1232840997#8 1232840997#9 1232840997#10 1232840997#11 1232840997#12 601900898#0 601900898#1 601900898#2 601900898#3 601900898#4 601900898#5 601900898#6 601900898#7 601900898#8 1031058625 -1029287546#19 -1029287546#18"/>
    </vehicle>
    <vehicle id="5" depart="4.00">
        <route edges="-1031083606#3 1031102314#0 1031102314#1 1031102314#2 -1031102311#1 1031102312#3 1031102312#4 -528437024#13 -528437024#12 -528437024#11 -528437024#10 -528437024#9 -528437024#7 -528437024#6 -528437024#5 -528437024#4 -528437024#3 1031137387#0 1031062368 -1394488468#0 1394488469#0 1394488469#1 1394488469#2 1394488469#4 1394488469#6 1394488469#7 1394488469#8 -1029185336#1 -1029185336#0 1028941365#16 1028941365#17 -1028945814 1028945814"/>
    </vehicle>
    <vehicle id="6" depart="4.80">
        <route edges="1031058622#1 1031058622#2 1031058622#3 1031058622#4 -1029295343#4 -1029295343#3 1029295584#0 1029295584#1 -1031149134#0 -1029287546#17 -1029287546#16 -1029287546#15 -1029287546#14 -1029287546#13 -1029287546#12 -1029287546#9 -1029287546#8 -1029287546#6 -1029287546#5 -1029287546#4 -1029289326#10 -1029289326#8 -1029291781#3 -1029291781#2 -1029291781#1 -1029291780#4 -1029291780#3 -1029291780#2 -1029291780#1 -1029291780#0 1029291780#0 1029291780#1"/>
    </vehicle>
    <vehicle id="7" depart="5.60">
        <route edges="-1031083607#5 1031083607#5 1031083607#6 -528437024#13 -528437024#12 -528437024#11 -528437024#10 -528437024#9 -528437024#7 -528437024#6 -528437024#5 -528437024#4 -528437024#3 1031137387#0 1031062368 -1394488468#0 1394488469#0 1394488469#1 1394488469#2 1394488469#4 1394488469#6 1029185337#0 1029185337#1 1029185337#2 1029185337#3 1029185733#0 1030299410"/>
    </vehicle>
    <vehicle id="8" depart="6.40">
        <route edges="1225659861#0 -1031065733#1 -1031065733#0 -1031065450#2 -1031065450#1 1232840997#7 1232840997#8 1232840997#9 1232840997#10 1232840997#11 1232840997#12 601900898#0 601900898#1 601900898#2 601900898#3 601900898#4 601900898#5 601900898#6 601900898#7 601900898#8 601900898#9 1031149137 -1031058622#4 -1031058622#3 -1031058622#2 -1031058622#1 -1031058622#0 1029295337#4 1029295337#5 1029295337#6 1029295337#7 -1010357939#7 -1010357939#6 -1010357939#5 -1010357939#4"/>
    </vehicle>
    <vehicle id="9" depart="7.20">
        <route edges="1210918021#0 -1210918021#0 601919182#0 601919182#1 601919182#2 601919182#3 601919182#4 601919182#5 601919182#6 601919182#7 601919182#8 601919182#9 601919182#10 544878386#1 544878386#2 544878386#3 544878386#4 544878399#14 544878399#15 544878399#16 544878399#17 -601935214#6 -601935214#5 -601935214#3 -601935214#2 -601935214#1 -601935214#0 -601935216#7 -601935216#6 -601935216#5 -601935216#4 -601935216#3 -601935216#2 -601935216#1 -601935216#0 1232840997#5 601935212#0 -1031068305#8 -1031068305#7 991056588#0 991056588#1 1031068306#0 1031068306#1"/>
    </vehicle>
    <vehicle id="10" depart="8.00">
        <route edges="-528437005#3 528437005#3 528437005#4 528437005#5 -800339100 1390306903#1 1031056771#0 1031056771#1 1031056771#2 -1393878249 -1031056775#2 -1031056775#1"/>
    </vehicle>
    <vehicle id="11" depart="8.80">
        <route edges="991056592#11 991056592#12 991056592#13 991056592#14 544878399#6 544878399#7 544878399#10 544878399#11 544878399#12 544878399#14 544878399#15 544878399#16 544878399#17 -601935214#6 -601935214#5 -601935214#3 -601935214#2 -601935214#1 -601935214#0 -601935216#7 -601935216#6 -601935216#5 -601935216#4 -601935216#3 -601935216#2 -601935216#1 -601935216#0 601940198#6 544878402#0 396098971#0 396098971#1 396098971#2 -396098971#2"/>
    </vehicle>
    <vehicle id="12" depart="9.60">
        <route edges="-1030293099#3 1030293099#3 1010357934#6 1010357934#7 1010357934#8 1010357934#9 1010357934#10 1010357934#11 -991056592#4 -1030310880#2 -1030310880#1 -1030310880#0 991056599#1 991056599#2 991056599#3 991056599#4 991056601#5 991056605 -601911106#4 -601911106#3 -1030267378#1 -1030267379"/>
    </vehicle>
    <vehicle id="13" depart="10.40">
        <route edges="528437003#1 528437003#2 528437001#5 528437001#6 528437001#1 528437001#2 528437016 528437005#3 528437005#4 528437005#5 528437005#6 238849892#0 1394488468#0 1394488468#2 1394488470#0 1211742111#1 1211742111#2 1211742111#3 -1031063138#1 -1031063138#0 601916754#2 601916754#3 601916754#4 601916754#5 601916754#6 601916754#7 601916754#8 601916754#9 601900898#8 601900898#9 1031149137 -1031058622#4 -1031058622#3 -1031058622#2 -1031058622#1 -1031058622#0 -1029295337#3 -1029514542#6 -1029514542#5 -1029514542#4 -1029514542#2 -1029514542#1 -1029514542#0 -1030312509#6 -1030312509#4 -1030312509#3 1030312509#3"/>
    </vehicle>
    <vehicle id="14" depart="11.20">
        <route edges="1210918021#5 -1210918021#5 -1210918021#4 -1210918021#3 -1210918021#2 -1210918021#0 601919182#0 601919182#1 601919182#2 601919182#3 601919182#4 601919182#5 601919182#6 601919182#7 601919182#8 601919182#9 601919182#10 544878386#1 544878386#2 544878386#3 544878386#4 544878399#14 544878399#15 544878399#16 544878399#17 -601935214#6 -601935214#5 -601935214#3 -601935214#2 -601935214#1 -601935214#0 -601935216#7 -601935216#6 -601935216#5 -601935216#4 -601935216#3 -601935216#2 -601935216#1 -601935216#0 1232840997#5 1232840997#6 1232840997#7 1232840997#8 1232840997#9 1232840997#10 1232840997#11 1232840997#12 1232840997#13 1232840997#14 -1232840998#2 -1232840998#1 -1031132129 1031135995#1 1031135995#2 1031135995#3 1031135995#4 1031135995#5 528437024#7 528437024#9 528437024#10 528437024#11 -1031103834#1 -1031103834#0 1031103833#1"/>
    </vehicle>
    <vehicle id="15" depart="12.00">
        <route edges="1029290171#0 1029290171#1 1029290171#2 1029290171#3 1029290171#4 1029290708 -1029290707#2 1029515476 1029515475#1 -1028941365#13 -1028941365#12 -1028941365#11 -1028941365#10 -1028941365#9 -1028941365#8 -1028941365#7 -1028941365#6 -1028941365#5 -1028941365#4 -1028941365#3 -1028941365#1 -1028941365#0 1394488468#2 1394488470#0 1394488470#1 1394488470#2 1394488470#3 1394488470#4 1394488470#5 1232840998#0 1232840998#1 1232840998#2 1232840996#0 1232840996#1 238849893#1 238849893#2 601940197#1 601940197#2 601940198#1 601940198#2 601940198#3 601940198#4 601935216#0 601935216#1 601935216#2 601935216#3 601935216#4 601935216#5 601935216#6 601935216#7 601935214#0 601935214#1 601935214#2 601935214#3 601935214#5 601935214#6 544878399#18 544878388#5 544878388#0 544878388#1 544878388#2 544878388#3 544878386#0 -601919182#10 -601919182#9 -601919182#8 -601919182#7 -601919182#6 -601919182#5 -601919182#4 -991057330#3 -991057330#2 -991057330#1 991057328#3 991057328#4"/>
    </vehicle>
    <vehicle id="16" depart="12.80">
        <route edges="-601911106#1 -1030267376 991056607#1 991056607#2 -991056601#7 -991056601#6 -991056601#5 -991056599#4 -991056599#3 -991056599#2 -991056599#1 1030310880#0 1030310880#1 1030310880#2 991056592#4 991056592#5 991056592#6 991056592#7 991056592#8 991056592#9 991056592#11 991056592#12 991056592#13 991056592#14 544878386#14 544878386#15 544878386#16 544878399#2 544878399#3 544878399#4 -991056589#8 -991056589#7 -991056589#6 -991056589#5 1031060317#0 1029295337#0 1029295337#1 1029295337#2 1029295337#3 1029295337#4 1029295337#5"/>
    </vehicle>
    <vehicle id="17" depart="13.60">
        <route edges="1425522296 1394488470#4 1394488470#5 1024299404#0 1457993666 -1031063136#1 -1031063136#0 601916754#4 601916754#5 601916754#6 601916754#7 601916754#8 601916754#9 601900898#8 601900898#9 1031149137 -1031058622#4 -1031058622#3 -1031058622#2 -1031058622#1 -1031058622#0 -1029295337#3 -1029514542#6 -1029514542#5 -1029514542#4 -1029514542#2 -1029514542#1 -1029514542#0 -1030312509#6 -1030316062#2 1030316062#2"/>
    </vehicle>
    <vehicle id="18" depart="14.40">
        <route edges="528437024#20 528437024#22 528437024#23 528437024#24 528437024#25 528437024#26 528437024#27 528437024#29 528437024#30 528437024#31 528437024#32 528437024#33 528437024#34 528437024#35 528437024#36 528437024#38 528437024#39 1196872610#0 1031066983 -1031065733#1 -1031065733#0 -1031065450#2 -1031065450#1 601940198#2 601940198#3 601940198#4 601935216#0 601935216#1 601935216#2 601935216#3 601935216#4 601935216#5 601935216#6 601935216#7 601935214#0 601935214#1 601935214#2 601935214#3 601935214#5 601935214#6 544878399#18 544878388#5 544878388#0 544878388#1 544878388#2 544878388#3 544878386#0 -601919182#10 -601919182#9 -601919182#8 -601919182#7 -601919182#6 -601919182#5 -601919182#4 -601919182#3 -601919182#2 -601919182#1 -601919182#0 -1031891442 -601911114#5 -601911114#4 -601911114#3 -601911114#2 -601911114#1 -601911114#0 -601911106#15 -601911106#14 -601911106#13 -601911106#12 -601911106#11 -601911106#10 -1030267380#1 -1030267381#1 -1030267381#0 1030267381#0"/>
    </vehicle>
    <vehicle id="19" depart="15.20">
        <route edges="1031067195#1 -1031067193#1 -1031067193#0 1031065450#11 1031065450#12 1031128991#1 1031128991#2 1031128991#3 -1031063917#2 -1031063917#1 1232840997#14 -1232840998#2 -1232840998#1 -1232840998#0 1024299404#0 1457993666 -1031063136#1 -1031063136#0 601916754#4 601916754#5 -1031057472#4 -1031057472#3 -1031057472#2 -1031057472#1 -1031057472#0 1031057471#1 1031057470 -1029288141#3 -1029288140#1 -1029288140#0 -1029287546#9 -1029287546#8 -1029287546#6 -1029287546#5 -1029287546#4 -1029289326#10"/>
    </vehicle>
    <vehicle id="20" depart="16.00">
        <route edges="-1031094532#1 -1031094532#0 -1031094531#1 -1031094531#0 528437024#27 528437024#29 528437024#30 528437024#31 -1031063917#10 -1031063917#9 -1031063917#8 -1031065450#14 1031128991#1 1031128991#2 1031128991#3 -1031063917#2 -1031063917#1 1232840997#14 -1232840998#2 -1232840998#1 -1232840998#0 1024299404#0 1457993666 -1031063136#1 -1031063136#0 601916754#4 601916754#5 601916754#6 601916754#7 601916754#8 601916754#9 601900898#8 1031058625 -1029287546#19 -1029287546#18 1031149134#0 1031149134#2 1031149134#3 1031149134#4 1031149134#5 -1031149134#5 -1031149134#4"/>
    </vehicle>
    <vehicle id="21" depart="16.80">
        <route edges="-1029514539 -1029513559#1 1029513560 1010357939#6 1010357939#7 -1029295337#7 -1029295337#6 -1029295337#5 -1029295337#4 1031058622#0 1031058622#1 1031058622#2 1031058622#3 1031058622#4 -1031149137 1029287546#24 -601900898#8 -601900898#7 -601900898#6 -601900898#5 -601900898#4 -601900898#3 -601900898#2 -601900898#1 -601900898#0 1232840997#13 1031063917#1 1031063917#2 1031063917#3 1031063917#4 1031096107#0 1031103835#0 1031103835#1 1031103835#2 528437024#17 528437024#18 528437024#19 -1031083606#4 -1031083606#3 -1031083606#2 -1031083606#1 -1031083606#0 -1031083605#0"/>
    </vehicle>
    <vehicle id="22" depart="17.60">
        <route edges="-1030299408#1 -1030299408#0 -1029185337#1 -1029185337#0 1394488469#7 1394488469#8 800145466#2 800145466#3 800145466#4 800145466#5 800145466#6 800145466#7 800145466#9 800145466#10 800145466#11 -528437005#6 -528437005#5 -528437005#4 528437022#0 -1031137387#6"/>
    </vehicle>
    <vehicle id="23" depart="18.40">
        <route edges="1031056773#2 1031056773#3 1031056773#4 1031056773#5 -1031056771#5 -1031056771#4 -1031056771#2 -1031056771#1 -1031056771#0 -1390306903#1 800145466#11 238849892#0 1394488468#0 1394488468#2 1394488470#0 1394488470#1 1394488470#2 1394488470#3 1394488470#4 1394488470#5 1232840998#0 1232840998#1 1232840998#2 1232840996#0 1031063917#1 1031063917#2 -1031128991#3 -1031128991#2 -1031128991#1 -1031065450#12 1031066985#0 1031066985#1 1031066985#2 1031066985#3 1031066985#4 1031066985#5 1031066985#6 -528437024#36 -528437024#35"/>
    </vehicle>
    <vehicle id="24" depart="19.20">
        <route edges="-544904289 -1031891952#2 -1031891952#1 -1031891952#0 544878424#1 544878424#2 544878424#3 544878424#4 544878424#5 544878396#0 544878396#1 544878388#3 544878388#4 544878388#5 544878391 544878382#0 544878382#1 544878382#2 1118611537#0 1118611538#0 1118611539 661173115#1 991055683#2 991055697#0 991055697#1 -601935216#6 -601935216#5 -601935216#4 -601935216#3 -601935216#2 -601935216#1 -601935216#0 1232840997#5 1232840997#6 1031065450#1 1031065450#2 1031065450#4 -1031065453#2 -1031065453#1"/>
    </vehicle>
    <vehicle id="25" depart="20.00">
        <route edges="-1031138969#1 -1031138969#0 -528437024#6 -528437024#5 -528437024#4 -528437024#3 -528437024#2 -528437024#1 -528437024#0 1394488470#2 1394488470#3 1394488470#4 1394488470#5 1232840998#0 1232840998#1 1232840998#2 1232840996#0 1232840996#1 238849893#1 238849893#2 601940197#1 601940197#2 601940198#1 601940198#2 601940198#3 601940198#4 601935216#0 601935216#1 601935216#2 601935216#3 -991055699#2 -991055699#1 -991055699#0 991055702#2"/>
    </vehicle>
    <vehicle id="26" depart="20.80">
        <route edges="1031057473 1031057472#2 1031057472#3 1031057472#4 601916754#6 601916754#7 601916754#8 601916754#9 -601900898#7 -601900898#6 -1031059880#5 -1031059880#4 -1031059880#3 -1031059880#2 -1031059880#0 -1031060317#10 -1031060317#8 -1031060317#7 -1031060317#5 -1031060317#4 -1031060317#3 -1031060317#0 991056589#5 991056589#6 991056589#7 991056589#8 544878399#5 544878386#14 544878386#15 544878386#16 544878386#18 -1030314087#1 1030314087#1"/>
    </vehicle>
    <vehicle id="27" depart="21.60">
        <route edges="-1031060714#0 1031060714#0 -1076015122#1 -1076015122#0 1232840997#12 1232840997#13 1232840997#14 -1232840998#2 -1232840998#1 -1031132129 1031135995#1 1031135995#2 1031135995#3 1031135995#4 1031135995#5 528437024#7 528437024#9 528437024#10 528437024#11 528437024#12 -1031103832#2 -1031103832#1 1031103832#1"/>
    </vehicle>
    <vehicle id="28" depart="22.40">
        <route edges="-1031059882#0 1031059882#0 1031059882#1 1031059880#5 -601900898#5 -601900898#4 -601900898#3 -601900898#2 -601900898#1 -601900898#0 1232840997#13 1232840997#14 1232840996#0 1232840996#1 238849893#1 238849893#2 601940197#1 601940197#2 601940198#1 601940198#2 601940198#3 601940198#4 601935216#0 601935216#1 601935216#2 601935216#3 601935216#4 601935216#5 601935216#6 601935216#7 601935214#0 601935214#1 601935214#2 601935214#3 601935214#5 601935214#6 544878399#18 544878388#5 544878388#0 544878388#1 544878384#0 -544893809#4 -544893809#3 -544893810#0 544893808#4 -544894963"/>
    </vehicle>
    <vehicle id="29" depart="23.20">
        <route edges="991059447#3 1079942428 -1031899847#0 -991057324#0 -991057323 -1210918021#2 -1210918021#0 601919182#0 601919182#1 601919182#2 601919182#3 601919182#4 601919182#5 601919182#6 601919182#7 601919182#8 601919182#9 601919182#10 544878386#1 544878386#2 544878386#3 544878386#4 544878399#14 544878399#15 544878399#16 544878399#17 -601935214#6 -601935214#5 -601935214#3 -601935214#2 -601935214#1 -601935214#0 -601935216#7 -601935216#6 -601935216#5 -601935216#4 -601935216#3 -601935216#2 -601935216#1 -601935216#0 1232840997#5 1232840997#6 1232840997#7 1232840997#8 1232840997#9 1232840997#10 1232840997#11 1232840997#12 1232840997#13 1232840997#14 -1232840998#2 -1232840998#1 -1232840998#0 1024299404#0 1024299404#1 1024299404#2 1024299404#3 1024299404#4 -1394488468#2 -1394488468#0 1394488469#0 1390306903#1 1031056771#0 1031056771#1 -1031056774#6 1031057023#0"/>
    </vehicle>
    <vehicle id="30" depart="24.00">
        <route edges="1029295343#2 1029295343#3 1029295343#4 -1031149137 1029287546#24 -601900898#8 -601900898#7 -601900898#6 -601900898#5 -601900898#4 -601900898#3 -601900898#2 -601900898#1 -601900898#0 1232840997#13 1232840997#14 1232840996#0 1232840996#1 238849893#1 238849893#2 601940197#1 601940197#2 -1031065731 -1031065727#3 -1031065727#2 -1031065727#1 1031065728"/>
    </vehicle>
    <vehicle id="31" depart="24.80">
        <route edges="517026186#1 -991055728 -991055732#1 991055731#0 991055731#1 1079743584#1 -1205128643#1 -1205128643#0 544878399#15 544878399#16 544878399#17 544878399#18 544878388#5 544878388#0 544878388#1 544878384#0 544878384#1 -544878424#5 -991057347#1 -991057347#0 -1079935598#0 -1427060322 544904291#0 544904291#1 544904291#2 544904291#3 544904291#4 1078752938#0"/>
    </vehicle>
    <vehicle id="32" depart="25.60">
        <route edges="-1031096106#1 -1031100595 -528437024#20 -528437024#19 -528437024#18 -528437024#17 -528437024#16 -528437024#13 -528437024#12 -528437024#11 -528437024#10 -528437024#9 -528437024#7 -528437024#6 -528437024#5 -528437024#4 -528437024#3 1031137387#0 1031062368 1028941365#0 1028941365#1 1028941365#3 1028941365#4 1028941365#5 1028941365#6 1028941365#7 1028941365#8 -1029288141#6 -1029288141#5 -1029288141#4 -1029288141#3 -1029288140#1 -1029288140#0 -1029287546#9 -1029287546#8 -1029287546#6"/>
    </vehicle>
    <vehicle id="33" depart="26.40">
        <route edges="-1232840998#1 1232840998#1 1232840998#2 1232840996#0 1031063917#1 1031063917#2 -1031128991#3 -1031128991#2 -1031128991#1 -1031065450#12 1031066985#0 1031066985#1 1031066985#2 1031066985#3 1031066985#4 1031066985#5 1031066985#6 -1031115698#1 -1031117425"/>
    </vehicle>
    <vehicle id="34" depart="27.20">
        <route edges="-1031068307#1 1031143229 1031068308#1 -1031068305#3 -1031068305#1 -1031068305#0 -991055713#0 -517026186#3 -517026186#2 -991055728 -991055732#1 991055730"/>
    </vehicle>
    <vehicle id="35" depart="28.00">
        <route edges="544878399#1 544878399#2 544878399#3 544878399#4 544878399#5 544878399#6 544878399#7 544878399#10 544878399#11 544878399#12 544878399#14 544878399#15 544878399#16 544878399#17 544878399#18 544878388#5 544878388#0 544878388#1 544878388#2 544878388#3 544878386#0 -601919182#10 -601919182#9 -601919182#8 -601919182#7 -601919182#6 -601919182#5 -601919182#4 -601919182#3 -601919182#2 -601919182#1 -601919182#0 1210918021#0 1210918021#2 1210918021#3 1210918021#4 1210918021#5 1210918021#6 1210918021#7 -991059458 991059457#1 117695908#2 117695908#3 117695908#5 117695908#6 117695908#7 117695908#9 117695908#10 117695908#11 117695908#12 117695908#13 -117695908#13"/>
    </vehicle>
    <vehicle id="36" depart="28.80">
        <route edges="1031059883#1 601900898#7 -601916754#9 -601916754#8"/>
    </vehicle>
    <vehicle id="37" depart="29.60">
        <route edges="601935211#2 1258566772#2 601935216#1 601935216#2 601935216#3 601935216#4 601935216#5 601935216#6 601935216#7 601935214#0 601935214#1 601935214#2 601935214#3 601935214#5 601935214#6 544878399#18 544878388#5 544878388#0 544878388#1 544878388#2 544878388#3 544878386#0 544878386#1 544878386#2 544878386#3 544878386#4 544878386#6 690452725#0 -690452725#3 690452727#1 690452727#2 -991057328#4"/>
    </vehicle>
    <vehicle id="38" depart="30.40">
        <route edges="-1031138967#4 -1031138967#2 -1031138967#1 -1031138967#0 528437024#9 528437024#10 528437024#11 528437024#12 528437024#13 528437024#16 -1031103835#2 -1031103835#1 -1031103835#0 1031096107#2 1031096107#4 -1031096107#4"/>
    </vehicle>
    <vehicle id="39" depart="31.20">
        <route edges="1029296310 -1029296310 -1029296309#0 -1031149134#4 -1031149134#3 -1031149134#2 -1031149134#0 1029287546#18 1029287546#19 -1031058625 -601900898#8 -601900898#7 -601900898#6 -601900898#5 -601900898#4 -601900898#3 -601900898#2 -601900898#1 -601900898#0 1232840997#13 1232840997#14 -1232840998#2 -1232840998#1 -1031132129 1031135995#1 1031135995#2 1031135995#3 1031135995#4 1031135995#5 528437024#7 528437024#9 1031137391#0 1031137391#1 1031106276#1 1031106276#2 1031106277#0 -1031106277#0"/>
    </vehicle>
    <vehicle id="40" depart="32.00">
        <route edges="1030293711 991056599#2 991056599#3 991056599#4 991056601#5 991056605 601911106#5 601911106#6 601911106#7 601911106#8"/>
    </vehicle>
    <vehicle id="41" depart="32.80">
        <route edges="-601936335#2 601936335#2 -991059447#4 1079942428 -1031899847#0 -991057324#0 -991057323 -1210918021#2 -1210918021#0 601919182#0 601919182#1 601919182#2 601919182#3 601919182#4 601919182#5 601919182#6 601919182#7 601919182#8 601919182#9 601919182#10 544878386#1 544878386#2 544878386#3 544878386#4 544878399#14 544878399#15 544878399#16 544878399#17 -601935214#6 -601935214#5 -601935214#3 -601935214#2 -601935214#1 -601935214#0 -601935216#7 -601935216#6 -601935216#5 -601935216#4 -601935216#3 -601935216#2 -601935216#1 -601935216#0 1232840997#5 1232840997#6 1031065450#1 1031065450#2 1031065450#4 1031065450#5 1031067196#0 1031067196#1 1031067196#2 -1031067193#1 -1031067192#0"/>
    </vehicle>
    <vehicle id="42" depart="33.60">
        <route edges="991059470 -601931004#2 -601931004#1 -601931004#0 -991059457#1 991059458 -1210918021#7 -1210918021#6 -1210918021#5 -1210918021#4 -1210918021#3 -1210918021#2 -1210918021#0 601919182#0 601919182#1 601919182#2 601919182#3 601919182#4 601919182#5 601919182#6 601919182#7 601919182#8 601919182#9 601919182#10 544878386#1 544878386#2 544878386#3 544878386#4 544878399#14 544878399#15 544878399#16 544878399#17 -601935214#6 -601935214#5 -601935214#3 -601935214#2 -601935214#1 -601935214#0 -601935216#7 -601935216#6 -601935216#5 -601935216#4 -601935216#3 -601935216#2 -601935216#1 -601935216#0 1232840997#5 1232840997#6 1232840997#7 1232840997#8 1232840997#9 1232840997#10 1232840997#11 1232840997#12 1232840997#13 1232840997#14 -1232840998#2 -1232840998#1 -1232840998#0 1024299404#0 1024299404#1 1024299404#2 1024299404#3 1024299404#4 -1394488468#2 -1394488468#0 1394488469#0 1394488469#1 1394488469#2 1394488469#4 1394488469#6 1029185337#0 1029185337#1 1029185337#2 1029185337#3 1029185733#0 1029185733#2 -1030299412#2 1029185343#0"/>
    </vehicle>
    <vehicle id="43" depart="34.40">
        <route edges="-1030293097#2 1030293097#2 1010357934#4 1010357934#5 1010357934#6 1010357934#7 1010357934#8 1010357934#9 1010357934#10 1010357934#11 991056592#5 991056592#6 991056592#7 991056592#8 991056592#9 991056592#11 991056592#12 991056592#13 991056592#14 544878386#14 544878386#15 544878386#16 544878386#18 544878386#19 1010357939#1 1010357939#2 1010357939#3 1010357939#4 1010357939#5 1010357939#6 1010357939#7 1010357939#8 1010357939#9 1010357939#10 1029289324#0 1029289324#1 1029289324#2 1029289326#1 1029289326#2 1029289326#3 1029289326#5 1029289326#6 1029289326#8 1029289326#10 1029289326#11 1029289326#13 1029289326#15 1029289326#16 1029289326#17 -1029289326#17"/>
    </vehicle>
    <vehicle id="44" depart="35.20">
        <route edges="-1030310883#1 1030310883#1 -1030310881#0 1030310880#2 991056592#4 991056592#5 991056592#6 991056592#7 991056592#8 991056592#9 991056592#11 991056592#12 991056592#13 991056592#14 544878399#6 544878399#7 544878399#10 544878399#11 544878399#12 544878399#14 544878399#15 544878399#16 544878399#17 -601935214#6 -601935214#5 -601935214#3 -601935214#2 -601935214#1 -601935214#0 -601935216#7 -601935216#6 -601935216#5 -601935216#4 -601935216#3 -601935216#2 -601935216#1 -601935216#0 1232840997#5 1232840997#6 1232840997#7 1232840997#8 1232840997#9 1232840997#10 1232840997#11 1232840997#12 1232840997#13 1232840997#14 -1232840998#2 -1232840998#1 -1232840998#0 1024299404#0 1024299404#1 1024299404#2 1024299404#3 1024299404#4 -1394488468#2 -1394488468#0 1394488469#0 800339100 -528437005#5 -528437005#4 -528437005#3 -528437005#2 1390057659 1030324649#0"/>
    </vehicle>
    <vehicle id="45" depart="36.00">
        <route edges="1080173149#0 -1080173149#0 1118611537#0 1118611538#0 1118611539 661173115#1 991055683#2 991055694#0 991055694#1 -991055694#1"/>
    </vehicle>
    <vehicle id="46" depart="36.80">
        <route edges="-1029295337#0 -1031060317#0 991056589#5 991056589#6 991056589#7 991056589#8 544878399#5 544878399#6 544878399#7 544878399#10 544878399#11 544878399#12 544878399#14 544878399#15 544878399#16 544878399#17 544878399#18 544878388#5 544878388#0 544878388#1 544878384#0 544878384#1 -544878424#5 -991057347#1 -991057347#0 -1079935598#0 -1427060322 544904291#0 544904291#1 544904291#2 544904291#3 544904291#4 -544904291#4"/>
    </vehicle>
    <vehicle id="47" depart="37.60">
        <route edges="991059464 -991059465 991059463#1 -601931004#0 -991059457#1 991059458 -1210918021#7 -1210918021#6 -1210918021#5 -1210918021#4 -1210918021#3 -1210918021#2 -1210918021#0 601919182#0 601919182#1 601919182#2 601919182#3 601919182#4 601919182#5 601919182#6 601919182#7 601919182#8 601919182#9 601919182#10 544878386#1 544878386#2 544878386#3 544878386#4 544878386#6 544878386#7 544878386#8 544878386#9 544878386#11 544878386#12 544878386#14 544878386#15 544878386#16 544878386#18 544878386#19 1010357939#1 1010357939#2 1010357939#3 1010357939#4 1010357939#5 1010357939#6 1010357939#7 1010357939#8 1010357939#9 1010357939#10 1029289324#0"/>
    </vehicle>
    <vehicle id="48" depart="38.40">
        <route edges="991056615#0 -991056615#0 601936335#2 -991059447#4 1079942428 -1031899847#0 -991057324#0 -991057323 -1210918021#2 -1210918021#0 601919182#0 601919182#1 601919182#2 601919182#3 601919182#4 601919182#5 601919182#6 601919182#7 601919182#8 601919182#9 601919182#10 544878386#1 544878386#2 544878386#3 544878386#4 544878399#14 544878399#15 544878399#16 544878399#17 -601935214#6 -601935214#5 -601935214#3 -601935214#2 -601935214#1 -601935214#0 -601935216#7 -601935216#6 -601935216#5 -601935216#4 -601935216#3 -601935216#2 -601935216#1 -601935216#0 601940198#6 -1225659861#5 -1225659861#4 -1225659861#3 -1225659861#1 -1031066983 -1196872610#0 528437024#41"/>
    </vehicle>
    <vehicle id="49" depart="39.20">
        <route edges="-1028941365#13 -1028941365#12 -1028941365#11 -1028941365#10 -1028941365#9 -1028941365#8 -1028941365#7 -1028941365#6 -1028941365#5 -1028941365#4 -1028941365#3 -1028941365#1 -1028941365#0 1394488468#2 1394488470#0 1394488470#1 1394488470#2 1394488470#3 1394488470#4 1394488470#5 1232840998#0 1232840998#1 1232840998#2 1232840996#0 1031063917#1 1031063917#2 -1031128991#3 -1031128991#2 -1031128991#1 1031065450#14 1031063917#8 1031063917#9 1031063917#10 -528437024#31 -528437024#30 1031100593"/>
    </vehicle>
    <vehicle id="50" depart="40.00">
        <route edges="1031063917#4 -1031063917#4 -1031063917#3 -1031063917#2 -1031063917#1 1232840997#14 -1232840998#2 -1232840998#1 -1232840998#0 1024299404#0 1024299404#1 1024299404#2 1024299404#3 1024299404#4 -1394488468#2 1028941365#0 1028941365#1 1028941365#3 1028941365#4 1028941365#5 1028941365#6 1028941365#7 1028941365#8 1028941365#9 1028941365#10 1028941365#11 1028941365#12 1028941365#13 -1029515475#1 -1029515476 1029290707#2 -1029290708 -1029290171#4 -1029290171#3 1029290171#3"/>
    </vehicle>
    <vehicle id="51" depart="40.80">
        <route edges="-1031138969#1 -1031138969#0 -528437024#6 -528437024#5 -528437024#4 -528437024#3 1031137387#0 1031062368 -1394488468#0 1394488469#0 1394488469#1 1394488469#2 1030299407 1031057026"/>
    </vehicle>
    <vehicle id="52" depart="41.60">
        <route edges="-1030311433#1 -1030317652#2 -1030317652#1 -1030317652#0 1010357934#5 1010357934#6 1010357934#7 1010357934#8 1010357934#9 1010357934#10 1010357934#11 991056592#5 991056592#6 991056592#7 991056592#8 991056592#9 991056592#11 991056592#12 991056592#13 991056592#14 544878399#6 -991056583 1010357948#0 1010357948#1 991056581#0 -991056580"/>
    </vehicle>
    <vehicle id="53" depart="42.40">
        <route edges="-991057328#5 -690452727#2 -690452727#1 690452725#3 -690452725#0 544878386#7 544878386#8 544878386#9 544878386#11 544878386#12 -991056592#14 991056592#14"/>
    </vehicle>